
*** ChampSim Multicore Out-of-Order Simulator ***

Warmup Instructions: 1000
Simulation Instructions: 10000000
Number of CPUs: 1
Off-chip DRAM Size: 4 GiB Channels: 1 Width: 64-bit Data Rate: 3200 MT/s

VirtualMemory physical capacity: 8588881920 num_ppages: 2096895
VirtualMemory page size: 4096 log2_page_size: 12

CPU 0 runs /home/ir0nh34d/cache_estimator/traces/401.bzip2-277B.champsimtrace.xz
CPU 0 Bimodal branch predictor
Basic BTB sets: 1024 ways: 8 indirect buffer size: 4096 RAS size: 64
Initializing LRU.
Initializing LRU.
Initializing LRU.
Initializing LRU.
Initializing rdLRU.
Initializing LRU.
Initializing LRU.

Warmup complete CPU 0 instructions: 1001 cycles: 313 (Simulation time: 0 hr 0 min 0 sec) 

Heartbeat CPU 0 instructions: 2000001 cycles: 1829366 heartbeat IPC: 1.09328 cumulative IPC: 1.09292 (Simulation time: 0 hr 0 min 11 sec) 

Region of Interest Statistics
cpu0_DTLB TOTAL     ACCESS:     251285  HIT:     199571  MISS:      51714
cpu0_DTLB LOAD      ACCESS:     161580  HIT:     109953  MISS:      51627
cpu0_DTLB RFO       ACCESS:      89705  HIT:      89618  MISS:         87
cpu0_DTLB PREFETCH  ACCESS:          0  HIT:          0  MISS:          0
cpu0_DTLB WRITEBACK ACCESS:          0  HIT:          0  MISS:          0
cpu0_ITLB TOTAL     ACCESS:      84391  HIT:      84387  MISS:          4
cpu0_ITLB LOAD      ACCESS:      84391  HIT:      84387  MISS:          4
cpu0_ITLB RFO       ACCESS:          0  HIT:          0  MISS:          0
cpu0_ITLB PREFETCH  ACCESS:          0  HIT:          0  MISS:          0
cpu0_ITLB WRITEBACK ACCESS:          0  HIT:          0  MISS:          0
cpu0_L1I TOTAL     ACCESS:        238  HIT:        204  MISS:         34
cpu0_L1I LOAD      ACCESS:        238  HIT:        204  MISS:         34
cpu0_L1I RFO       ACCESS:          0  HIT:          0  MISS:          0
cpu0_L1I PREFETCH  ACCESS:          0  HIT:          0  MISS:          0
cpu0_L1I WRITEBACK ACCESS:          0  HIT:          0  MISS:          0
cpu0_STLB TOTAL     ACCESS:      51718  HIT:      51040  MISS:        678
cpu0_STLB LOAD      ACCESS:      51631  HIT:      50976  MISS:        655
cpu0_STLB RFO       ACCESS:         87  HIT:         64  MISS:         23
cpu0_STLB PREFETCH  ACCESS:          0  HIT:          0  MISS:          0
cpu0_STLB WRITEBACK ACCESS:          0  HIT:          0  MISS:          0
cpu0_L1D TOTAL     ACCESS:     241489  HIT:     186247  MISS:      55242
cpu0_L1D LOAD      ACCESS:     160685  HIT:     107809  MISS:      52876
cpu0_L1D RFO       ACCESS:      80133  HIT:      77791  MISS:       2342
cpu0_L1D PREFETCH  ACCESS:          0  HIT:          0  MISS:          0
cpu0_L1D WRITEBACK ACCESS:          0  HIT:          0  MISS:          0
cpu0_L2C TOTAL     ACCESS:      57922  HIT:      20866  MISS:      37056
cpu0_L2C LOAD      ACCESS:      52910  HIT:      17131  MISS:      35779
cpu0_L2C RFO       ACCESS:       2342  HIT:       1069  MISS:       1273
cpu0_L2C PREFETCH  ACCESS:          0  HIT:          0  MISS:          0
cpu0_L2C WRITEBACK ACCESS:       2646  HIT:       2646  MISS:          0
LLC TOTAL     ACCESS:      38068  HIT:      11565  MISS:      26503
LLC LOAD      ACCESS:      35779  HIT:      10548  MISS:      25231
LLC RFO       ACCESS:       1273  HIT:          4  MISS:       1269
LLC PREFETCH  ACCESS:          0  HIT:          0  MISS:          0
LLC WRITEBACK ACCESS:       1012  HIT:       1012  MISS:          0
~~~~~~~~~~Reuse Distance Profiler output~~~~~~~~~~
0	18896	7856
1	35936	3008
2	20432	1552
3	7872	1712
4	4384	1520
5	3296	1744
6	2512	1360
7	2048	1280
8	1872	1488
9	1760	1392
10	1808	1552
11	1760	1568
12	1360	1248
13	1584	1440
14	1328	1184
15	1232	1184
16	1440	1424
17	1568	1440
18	1280	1264
19	1312	1200
20	1136	1072
21	1344	1328
22	768	768
23	1072	1040
24	880	864
25	992	992
26	1104	1088
27	976	976
28	960	960
29	1040	1008
30	768	768
31	576	576
32	880	880
33	672	672
34	640	640
35	560	560
36	864	864
37	944	944
38	768	768
39	800	800
40	576	576
41	704	704
42	832	832
43	736	736
44	800	800
45	768	768
46	384	384
47	528	528
48	512	512
49	496	496
50	688	688
51	480	480
52	528	528
53	480	480
54	512	512
55	704	704
56	688	688
57	560	560
58	592	592
59	592	592
60	480	480
61	512	512
62	432	432
63	432	432
64	1088	1088
66	768	768
68	864	864
70	608	608
72	896	896
74	608	608
76	816	816
78	672	672
80	624	624
82	640	640
84	784	784
86	576	576
88	672	672
90	448	448
92	496	496
94	464	464
96	608	608
98	480	480
100	368	368
102	336	336
104	368	368
106	464	464
108	416	416
110	320	320
112	272	272
114	336	336
116	320	320
118	304	304
120	288	288
122	384	384
124	272	272
126	256	256
128	528	528
132	528	528
136	544	544
140	576	560
144	688	608
148	448	448
152	400	400
156	240	240
160	240	240
164	224	224
168	352	352
172	192	192
176	320	320
180	144	144
184	208	208
188	112	112
192	176	176
196	144	144
200	240	240
204	176	176
208	144	144
212	112	112
216	160	160
220	160	160
224	224	224
228	96	96
232	112	112
236	96	96
240	128	128
244	176	176
248	128	128
252	272	272
256	240	240
264	208	208
272	272	272
280	256	256
288	240	240
296	192	192
304	240	240
312	288	288
320	192	192
328	144	144
336	176	176
344	336	336
352	176	176
360	192	192
368	144	144
376	192	192
384	256	256
392	96	96
400	160	160
408	176	176
416	128	128
424	48	48
432	80	80
440	224	224
448	32	32
456	80	80
464	192	192
472	80	80
480	96	96
488	112	112
496	128	128
504	96	96
512	128	128
528	160	160
544	160	160
560	304	304
576	272	272
592	96	96
608	192	192
624	144	144
640	208	208
656	240	240
672	240	240
688	240	240
704	192	192
720	112	112
736	96	96
752	144	144
768	208	208
784	96	96
800	144	144
816	144	144
832	144	144
848	160	160
864	128	128
880	80	80
896	48	48
912	144	128
928	80	80
944	240	240
960	48	48
976	96	80
992	96	96
1008	80	80
1024	96	96
1056	80	80
1088	144	144
1120	208	208
1152	192	192
1184	144	144
1216	240	240
1248	80	80
1280	160	160
1312	176	176
1344	64	64
1376	176	160
1408	112	112
1440	112	112
1472	48	16
1504	192	176
1536	112	112
1568	112	112
1600	144	144
1632	112	112
1664	112	112
1696	64	64
1728	96	96
1760	96	96
1792	128	128
1824	64	64
1856	32	32
1888	96	96
1920	32	32
1952	80	80
1984	64	64
2016	96	64
2048	96	96
2112	96	96
2176	80	64
2240	64	48
2304	128	128
2368	192	160
2432	64	64
2496	112	80
2560	208	208
2624	80	80
2688	160	160
2752	160	160
2816	112	112
2880	32	32
2944	96	96
3008	80	80
3072	48	48
3136	112	112
3200	160	160
3264	144	128
3328	160	160
3392	112	112
3456	96	80
3520	96	96
3584	112	96
3648	96	96
3712	112	112
3776	80	64
3840	80	80
3904	208	192
3968	144	144
4032	128	112
4096	208	208
4224	96	96
4352	240	224
4480	80	64
4608	176	176
4736	64	64
4864	320	304
4992	304	272
5120	208	176
5248	112	112
5376	64	64
5504	48	48
5632	48	48
5760	64	64
5888	144	144
6016	144	128
6144	80	64
6272	96	96
6400	224	192
6528	176	144
6656	128	96
6784	192	192
6912	208	208
7040	80	80
7168	128	112
7296	144	96
7424	96	96
7552	32	32
7680	112	96
7808	96	64
7936	160	144
8064	192	192
8192	256	256
8448	224	224
8704	128	128
8960	224	176
9216	272	240
9472	304	256
9728	128	112
9984	272	272
10240	128	112
10496	272	240
10752	64	48
11008	208	208
11264	96	96
11520	128	128
11776	192	192
12032	176	144
12288	160	96
12544	160	144
12800	240	224
13056	80	48
13312	128	112
13568	144	112
13824	128	112
14080	176	128
14336	144	112
14592	112	112
14848	112	80
15104	144	144
15360	112	112
15616	96	96
15872	96	96
16128	64	64
16384	144	144
16896	112	112
17408	96	96
17920	192	192
18432	176	176
18944	160	160
19456	208	208
19968	192	192
20480	144	144
20992	224	224
21504	176	176
22016	144	144
22528	96	96
23040	192	192
23552	208	208
24064	128	128
24576	176	176
25088	208	208
25600	160	160
26112	80	80
26624	96	96
27136	112	112
27648	80	80
28160	64	64
28672	64	64
29184	112	112
29696	224	224
30208	288	288
30720	160	160
31232	80	80
31744	80	80
32256	128	128
32768	192	192
33792	336	336
34816	320	320
35840	224	224
36864	272	272
37888	176	176
38912	80	80
39936	160	160
40960	144	144
41984	256	256
43008	208	208
44032	160	160
45056	192	192
46080	80	80
47104	176	176
48128	208	208
49152	144	144
50176	112	112
51200	192	192
52224	112	112
53248	176	176
54272	96	96
55296	304	304
56320	176	176
57344	160	160
58368	128	128
59392	96	96
60416	112	112
61440	144	144
62464	112	112
63488	144	144
64512	64	64
65536	368	368
67584	224	224
69632	224	224
71680	320	320
73728	320	320
75776	272	272
77824	288	288
79872	96	96
81920	96	96
83968	144	144
86016	176	176
88064	192	192
90112	48	48
92160	112	112
94208	160	160
96256	208	208
98304	144	144
100352	64	64
102400	240	240
104448	96	96
106496	160	160
108544	128	128
110592	80	80
112640	128	128
114688	112	112
116736	240	240
118784	224	224
120832	80	80
122880	176	176
124928	48	48
126976	224	224
129024	64	64
131072	224	224
135168	288	288
139264	176	176
143360	96	96
147456	96	96
151552	112	112
155648	128	128
159744	64	64
163840	96	96
167936	32	32
172032	80	80
176128	48	48
180224	96	96
184320	16	16
188416	48	48
192512	64	64
196608	0	0
200704	32	32
204800	0	0
208896	16	16
212992	0	0
217088	32	32
221184	16	16
225280	0	0
229376	0	0
233472	16	16
237568	0	0
241664	0	0
245760	0	0
249856	0	0
253952	0	0
258048	0	0
262144	0	0
270336	0	0
278528	0	0
286720	0	0
294912	0	0
303104	0	0
311296	0	0
319488	0	0
327680	0	0
335872	0	0
344064	0	0
352256	0	0
360448	0	0
368640	0	0
376832	0	0
385024	0	0
393216	0	0
401408	0	0
409600	0	0
417792	0	0
425984	0	0
434176	0	0
442368	0	0
450560	0	0
458752	0	0
466944	0	0
475136	0	0
483328	0	0
491520	0	0
499712	0	0
507904	0	0
516096	0	0
524288	0	0
540672	0	0
557056	0	0
573440	0	0
589824	0	0
606208	0	0
622592	0	0
638976	0	0
655360	0	0
671744	0	0
688128	0	0
704512	0	0
720896	0	0
737280	0	0
753664	0	0
770048	0	0
786432	0	0
802816	0	0
819200	0	0
835584	0	0
851968	0	0
868352	0	0
884736	0	0
901120	0	0
917504	0	0
933888	0	0
950272	0	0
966656	0	0
983040	0	0
999424	0	0
1015808	0	0
1032192	0	0
1048576	0	0
1081344	0	0
1114112	0	0
1146880	0	0
1179648	0	0
1212416	0	0
1245184	0	0
1277952	0	0
1310720	0	0
1343488	0	0
1376256	0	0
1409024	0	0
1441792	0	0
1474560	0	0
1507328	0	0
1540096	0	0
1572864	0	0
1605632	0	0
1638400	0	0
1671168	0	0
1703936	0	0
1736704	0	0
1769472	0	0
1802240	0	0
1835008	0	0
1867776	0	0
1900544	0	0
1933312	0	0
1966080	0	0
1998848	0	0
2031616	0	0
2064384	0	0
2097152	0	0
2162688	0	0
2228224	0	0
2293760	0	0
2359296	0	0
2424832	0	0
2490368	0	0
2555904	0	0
2621440	0	0
2686976	0	0
2752512	0	0
2818048	0	0
2883584	0	0
2949120	0	0
3014656	0	0
3080192	0	0
3145728	0	0
3211264	0	0
3276800	0	0
3342336	0	0
3407872	0	0
3473408	0	0
3538944	0	0
3604480	0	0
3670016	0	0
3735552	0	0
3801088	0	0
3866624	0	0
3932160	0	0
3997696	0	0
4063232	0	0
4128768	0	0
4194304	0	0
4325376	0	0
4456448	0	0
4587520	0	0
4718592	0	0
4849664	0	0
4980736	0	0
5111808	0	0
5242880	0	0
5373952	0	0
5505024	0	0
5636096	0	0
5767168	0	0
5898240	0	0
6029312	0	0
6160384	0	0
6291456	0	0
6422528	0	0
6553600	0	0
6684672	0	0
6815744	0	0
6946816	0	0
7077888	0	0
7208960	0	0
7340032	0	0
7471104	0	0
7602176	0	0
7733248	0	0
7864320	0	0
7995392	0	0
8126464	0	0
8257536	0	0
8388608	0	0
8650752	0	0
8912896	0	0
9175040	0	0
9437184	0	0
9699328	0	0
9961472	0	0
10223616	0	0
10485760	0	0
10747904	0	0
11010048	0	0
11272192	0	0
11534336	0	0
11796480	0	0
12058624	0	0
12320768	0	0
12582912	0	0
12845056	0	0
13107200	0	0
13369344	0	0
13631488	0	0
13893632	0	0
14155776	0	0
14417920	0	0
14680064	0	0
14942208	0	0
15204352	0	0
15466496	0	0
15728640	0	0
15990784	0	0
16252928	0	0
16515072	0	0
16777216	0	0
17301504	0	0
17825792	0	0
18350080	0	0
18874368	0	0
19398656	0	0
19922944	0	0
20447232	0	0
20971520	0	0
21495808	0	0
22020096	0	0
22544384	0	0
23068672	0	0
23592960	0	0
24117248	0	0
24641536	0	0
25165824	0	0
25690112	0	0
26214400	0	0
26738688	0	0
27262976	0	0
27787264	0	0
28311552	0	0
28835840	0	0
29360128	0	0
29884416	0	0
30408704	0	0
30932992	0	0
31457280	0	0
31981568	0	0
32505856	0	0
33030144	0	0
33554432	0	0
34603008	0	0
35651584	0	0
36700160	0	0
37748736	0	0
38797312	0	0
39845888	0	0
40894464	0	0
41943040	0	0
42991616	0	0
44040192	0	0
45088768	0	0
46137344	0	0
47185920	0	0
48234496	0	0
49283072	0	0
50331648	0	0
51380224	0	0
52428800	0	0
53477376	0	0
54525952	0	0
55574528	0	0
56623104	0	0
57671680	0	0
58720256	0	0
59768832	0	0
60817408	0	0
61865984	0	0
62914560	0	0
63963136	0	0
65011712	0	0
66060288	0	0
67108864	0	0
69206016	0	0
71303168	0	0
73400320	0	0
75497472	0	0
77594624	0	0
79691776	0	0
81788928	0	0
83886080	0	0
85983232	0	0
88080384	0	0
90177536	0	0
92274688	0	0
94371840	0	0
96468992	0	0
98566144	0	0
100663296	0	0
102760448	0	0
104857600	0	0
106954752	0	0
109051904	0	0
111149056	0	0
113246208	0	0
115343360	0	0
117440512	0	0
119537664	0	0
121634816	0	0
123731968	0	0
125829120	0	0
127926272	0	0
130023424	0	0
132120576	0	0
134217728	0	0
138412032	0	0
142606336	0	0
146800640	0	0
150994944	0	0
155189248	0	0
159383552	0	0
163577856	0	0
167772160	0	0
171966464	0	0
176160768	0	0
180355072	0	0
184549376	0	0
188743680	0	0
192937984	0	0
197132288	0	0
201326592	0	0
205520896	0	0
209715200	0	0
213909504	0	0
218103808	0	0
222298112	0	0
226492416	0	0
230686720	0	0
234881024	0	0
239075328	0	0
243269632	0	0
247463936	0	0
251658240	0	0
255852544	0	0
260046848	0	0
264241152	0	0
268435456	0	0
276824064	0	0
285212672	0	0
293601280	0	0
301989888	0	0
310378496	0	0
318767104	0	0
327155712	0	0
335544320	0	0
343932928	0	0
352321536	0	0
360710144	0	0
369098752	0	0
377487360	0	0
385875968	0	0
394264576	0	0
402653184	0	0
411041792	0	0
419430400	0	0
427819008	0	0
436207616	0	0
444596224	0	0
452984832	0	0
461373440	0	0
469762048	0	0
478150656	0	0
486539264	0	0
494927872	0	0
503316480	0	0
511705088	0	0
520093696	0	0
528482304	0	0
536870912	0	0
553648128	0	0
570425344	0	0
587202560	0	0
603979776	0	0
620756992	0	0
637534208	0	0
654311424	0	0
671088640	0	0
687865856	0	0
704643072	0	0
721420288	0	0
738197504	0	0
754974720	0	0
771751936	0	0
788529152	0	0
805306368	0	0
822083584	0	0
838860800	0	0
855638016	0	0
872415232	0	0
889192448	0	0
905969664	0	0
922746880	0	0
939524096	0	0
956301312	0	0
973078528	0	0
989855744	0	0
1006632960	0	0
1023410176	0	0
1040187392	0	0
1056964608	0	0
1073741824	0	0
1107296256	0	0
1140850688	0	0
1174405120	0	0
1207959552	0	0
1241513984	0	0
1275068416	0	0
1308622848	0	0
1342177280	0	0
1375731712	0	0
1409286144	0	0
1442840576	0	0
1476395008	0	0
1509949440	0	0
1543503872	0	0
1577058304	0	0
1610612736	0	0
1644167168	0	0
1677721600	0	0
1711276032	0	0
1744830464	0	0
1778384896	0	0
1811939328	0	0
1845493760	0	0
1879048192	0	0
1912602624	0	0
1946157056	0	0
1979711488	0	0
2013265920	0	0
2046820352	0	0
2080374784	0	0
2113929216	0	0
2147483648	0	0
2214592512	0	0
2281701376	0	0
2348810240	0	0
2415919104	0	0
2483027968	0	0
2550136832	0	0
2617245696	0	0
2684354560	0	0
2751463424	0	0
2818572288	0	0
2885681152	0	0
2952790016	0	0
3019898880	0	0
3087007744	0	0
3154116608	0	0
3221225472	0	0
3288334336	0	0
3355443200	0	0
3422552064	0	0
3489660928	0	0
3556769792	0	0
3623878656	0	0
3690987520	0	0
3758096384	0	0
3825205248	0	0
3892314112	0	0
3959422976	0	0
4026531840	0	0
4093640704	0	0
4160749568	0	0
4227858432	0	0
~~~~~~~~~~Reuse Distance Profiler output end~~~~~~~~~~

Heartbeat CPU 0 instructions: 4000000 cycles: 3100257 heartbeat IPC: 1.5737 cumulative IPC: 1.29002 (Simulation time: 0 hr 0 min 17 sec) 

Region of Interest Statistics
cpu0_DTLB TOTAL     ACCESS:     502389  HIT:     395661  MISS:     106728
cpu0_DTLB LOAD      ACCESS:     323570  HIT:     217014  MISS:     106556
cpu0_DTLB RFO       ACCESS:     178819  HIT:     178647  MISS:        172
cpu0_DTLB PREFETCH  ACCESS:          0  HIT:          0  MISS:          0
cpu0_DTLB WRITEBACK ACCESS:          0  HIT:          0  MISS:          0
cpu0_ITLB TOTAL     ACCESS:     201379  HIT:     201375  MISS:          4
cpu0_ITLB LOAD      ACCESS:     201379  HIT:     201375  MISS:          4
cpu0_ITLB RFO       ACCESS:          0  HIT:          0  MISS:          0
cpu0_ITLB PREFETCH  ACCESS:          0  HIT:          0  MISS:          0
cpu0_ITLB WRITEBACK ACCESS:          0  HIT:          0  MISS:          0
cpu0_L1I TOTAL     ACCESS:        439  HIT:        405  MISS:         34
cpu0_L1I LOAD      ACCESS:        439  HIT:        405  MISS:         34
cpu0_L1I RFO       ACCESS:          0  HIT:          0  MISS:          0
cpu0_L1I PREFETCH  ACCESS:          0  HIT:          0  MISS:          0
cpu0_L1I WRITEBACK ACCESS:          0  HIT:          0  MISS:          0
cpu0_STLB TOTAL     ACCESS:     106732  HIT:     106035  MISS:        697
cpu0_STLB LOAD      ACCESS:     106560  HIT:     105905  MISS:        655
cpu0_STLB RFO       ACCESS:        172  HIT:        130  MISS:         42
cpu0_STLB PREFETCH  ACCESS:          0  HIT:          0  MISS:          0
cpu0_STLB WRITEBACK ACCESS:          0  HIT:          0  MISS:          0
cpu0_L1D TOTAL     ACCESS:     481924  HIT:     368067  MISS:     113857
cpu0_L1D LOAD      ACCESS:     321774  HIT:     212637  MISS:     109137
cpu0_L1D RFO       ACCESS:     159460  HIT:     154780  MISS:       4680
cpu0_L1D PREFETCH  ACCESS:          0  HIT:          0  MISS:          0
cpu0_L1D WRITEBACK ACCESS:          0  HIT:          0  MISS:          0
cpu0_L2C TOTAL     ACCESS:     119198  HIT:      45773  MISS:      73425
cpu0_L2C LOAD      ACCESS:     109171  HIT:      38275  MISS:      70896
cpu0_L2C RFO       ACCESS:       4680  HIT:       2155  MISS:       2525
cpu0_L2C PREFETCH  ACCESS:          0  HIT:          0  MISS:          0
cpu0_L2C WRITEBACK ACCESS:       5307  HIT:       5307  MISS:          0
LLC TOTAL     ACCESS:      75721  HIT:      35806  MISS:      39915
LLC LOAD      ACCESS:      70896  HIT:      33508  MISS:      37388
LLC RFO       ACCESS:       2525  HIT:          5  MISS:       2520
LLC PREFETCH  ACCESS:          0  HIT:          0  MISS:          0
LLC WRITEBACK ACCESS:       2296  HIT:       2292  MISS:          4
~~~~~~~~~~Reuse Distance Profiler output~~~~~~~~~~
0	41184	16336
1	68848	5408
2	40240	3344
3	15520	3568
4	7568	3264
5	5792	3280
6	4848	2880
7	4544	2880
8	3824	2976
9	3728	2800
10	3312	2640
11	3440	2992
12	2768	2480
13	3008	2736
14	2720	2480
15	2448	2288
16	2576	2464
17	2864	2624
18	2512	2416
19	2624	2416
20	2096	1952
21	2352	2304
22	1584	1568
23	1936	1888
24	1904	1856
25	2016	1984
26	2288	2240
27	1920	1888
28	1824	1824
29	2016	1936
30	1456	1456
31	1344	1344
32	1600	1600
33	1648	1648
34	1376	1376
35	1408	1408
36	1568	1568
37	1776	1776
38	1488	1488
39	1344	1344
40	1504	1504
41	1504	1504
42	1536	1536
43	1616	1616
44	1696	1696
45	1344	1344
46	1040	1040
47	1008	1008
48	1072	1072
49	1040	1040
50	1472	1472
51	944	944
52	1136	1136
53	1088	1088
54	1136	1136
55	1232	1232
56	1072	1072
57	1056	1056
58	1104	1104
59	1296	1296
60	992	992
61	1008	1008
62	832	832
63	944	944
64	1856	1856
66	1712	1712
68	1632	1632
70	1328	1328
72	1600	1600
74	1216	1216
76	1680	1680
78	1392	1392
80	1408	1408
82	1344	1344
84	1472	1472
86	1136	1136
88	1120	1120
90	1056	1056
92	976	976
94	944	944
96	1104	1104
98	928	928
100	816	816
102	912	912
104	848	848
106	832	832
108	832	832
110	672	672
112	608	608
114	784	784
116	576	576
118	592	592
120	640	640
122	736	736
124	576	576
126	544	544
128	1040	1040
132	1056	1056
136	1008	1008
140	960	928
144	1152	1024
148	784	784
152	768	768
156	528	528
160	560	560
164	448	448
168	656	656
172	384	384
176	480	480
180	320	320
184	512	512
188	272	272
192	368	368
196	288	288
200	464	464
204	368	368
208	272	272
212	272	272
216	304	304
220	272	272
224	352	352
228	208	208
232	240	240
236	240	240
240	272	272
244	272	272
248	288	288
252	304	304
256	416	416
264	496	496
272	512	512
280	480	480
288	496	496
296	304	304
304	320	320
312	400	400
320	224	224
328	240	240
336	240	240
344	416	416
352	240	240
360	256	256
368	256	256
376	320	320
384	464	464
392	320	320
400	256	256
408	368	368
416	256	256
424	224	224
432	208	208
440	352	352
448	128	128
456	192	192
464	288	288
472	224	224
480	224	224
488	208	208
496	176	176
504	144	144
512	240	240
528	288	288
544	240	240
560	560	560
576	528	528
592	256	256
608	336	336
624	256	256
640	336	336
656	352	352
672	256	256
688	336	336
704	224	224
720	336	320
736	256	256
752	304	304
768	352	352
784	144	144
800	288	288
816	256	256
832	272	272
848	352	352
864	336	336
880	256	256
896	80	80
912	240	224
928	176	176
944	272	272
960	160	160
976	192	176
992	176	176
1008	160	160
1024	224	224
1056	272	272
1088	384	368
1120	416	400
1152	320	320
1184	304	304
1216	400	400
1248	192	192
1280	352	352
1312	320	320
1344	112	112
1376	240	224
1408	256	256
1440	288	272
1472	176	144
1504	432	416
1536	208	208
1568	144	144
1600	240	240
1632	192	192
1664	240	224
1696	192	192
1728	240	240
1760	288	272
1792	272	256
1824	192	192
1856	96	96
1888	224	224
1920	176	176
1952	160	160
1984	272	272
2016	192	160
2048	288	272
2112	336	336
2176	320	304
2240	288	272
2304	336	304
2368	752	720
2432	304	304
2496	224	192
2560	352	336
2624	224	208
2688	272	256
2752	304	304
2816	256	256
2880	160	160
2944	240	224
3008	224	224
3072	256	240
3136	320	320
3200	224	224
3264	208	192
3328	256	256
3392	192	192
3456	192	176
3520	208	208
3584	256	224
3648	208	192
3712	288	288
3776	224	208
3840	208	208
3904	272	240
3968	224	192
4032	304	288
4096	528	496
4224	288	256
4352	304	272
4480	224	208
4608	288	272
4736	272	272
4864	544	512
4992	480	448
5120	304	256
5248	320	320
5376	288	272
5504	224	224
5632	304	304
5760	272	256
5888	272	256
6016	288	272
6144	224	192
6272	304	304
6400	352	320
6528	224	176
6656	336	304
6784	384	352
6912	368	352
7040	272	240
7168	176	160
7296	272	208
7424	208	208
7552	208	192
7680	192	176
7808	176	112
7936	352	336
8064	352	320
8192	656	624
8448	384	384
8704	352	336
8960	416	352
9216	512	480
9472	496	432
9728	384	336
9984	592	544
10240	304	288
10496	480	416
10752	288	224
11008	416	400
11264	256	256
11520	352	320
11776	432	400
12032	416	352
12288	400	304
12544	352	288
12800	384	368
13056	240	160
13312	368	336
13568	272	240
13824	192	160
14080	256	176
14336	304	240
14592	352	320
14848	208	160
15104	384	384
15360	272	272
15616	208	208
15872	240	240
16128	144	144
16384	320	320
16896	336	336
17408	272	272
17920	432	432
18432	288	288
18944	496	496
19456	400	400
19968	336	336
20480	272	272
20992	480	480
21504	464	464
22016	624	624
22528	272	272
23040	384	384
23552	336	336
24064	240	240
24576	368	368
25088	320	320
25600	384	384
26112	208	208
26624	320	320
27136	224	224
27648	224	224
28160	272	272
28672	240	240
29184	336	336
29696	352	352
30208	400	400
30720	304	304
31232	176	176
31744	208	208
32256	256	256
32768	448	448
33792	544	544
34816	656	656
35840	464	464
36864	448	448
37888	384	384
38912	304	304
39936	432	432
40960	304	304
41984	416	416
43008	496	496
44032	384	384
45056	400	400
46080	288	288
47104	400	400
48128	464	464
49152	304	304
50176	288	288
51200	288	288
52224	400	400
53248	448	448
54272	240	240
55296	384	384
56320	320	320
57344	336	336
58368	336	336
59392	224	224
60416	256	256
61440	384	384
62464	320	320
63488	256	256
64512	208	208
65536	656	656
67584	464	464
69632	512	512
71680	544	544
73728	672	672
75776	624	624
77824	544	544
79872	256	256
81920	352	352
83968	560	560
86016	256	256
88064	400	400
90112	272	272
92160	384	384
94208	464	464
96256	576	576
98304	528	528
100352	224	224
102400	528	528
104448	304	304
106496	480	480
108544	576	576
110592	368	368
112640	288	288
114688	368	368
116736	528	528
118784	464	464
120832	288	288
122880	320	320
124928	160	160
126976	480	480
129024	272	272
131072	592	592
135168	752	752
139264	432	432
143360	464	464
147456	496	496
151552	464	464
155648	368	368
159744	464	464
163840	384	384
167936	432	432
172032	464	464
176128	336	336
180224	432	432
184320	272	272
188416	368	368
192512	352	352
196608	336	336
200704	352	352
204800	144	144
208896	320	320
212992	128	128
217088	272	272
221184	208	208
225280	256	256
229376	208	208
233472	272	272
237568	144	144
241664	176	176
245760	96	96
249856	256	256
253952	128	128
258048	192	192
262144	384	384
270336	320	320
278528	304	304
286720	464	464
294912	208	208
303104	400	400
311296	304	304
319488	240	240
327680	240	240
335872	80	80
344064	144	144
352256	80	80
360448	64	64
368640	176	176
376832	128	128
385024	80	80
393216	112	112
401408	128	128
409600	48	48
417792	32	32
425984	80	80
434176	48	48
442368	0	0
450560	16	16
458752	0	0
466944	0	0
475136	0	0
483328	0	0
491520	0	0
499712	0	0
507904	0	0
516096	0	0
524288	0	0
540672	0	0
557056	0	0
573440	0	0
589824	0	0
606208	0	0
622592	0	0
638976	0	0
655360	0	0
671744	0	0
688128	0	0
704512	0	0
720896	0	0
737280	0	0
753664	0	0
770048	0	0
786432	0	0
802816	0	0
819200	0	0
835584	0	0
851968	0	0
868352	0	0
884736	0	0
901120	0	0
917504	0	0
933888	0	0
950272	0	0
966656	0	0
983040	0	0
999424	0	0
1015808	0	0
1032192	0	0
1048576	0	0
1081344	0	0
1114112	0	0
1146880	0	0
1179648	0	0
1212416	0	0
1245184	0	0
1277952	0	0
1310720	0	0
1343488	0	0
1376256	0	0
1409024	0	0
1441792	0	0
1474560	0	0
1507328	0	0
1540096	0	0
1572864	0	0
1605632	0	0
1638400	0	0
1671168	0	0
1703936	0	0
1736704	0	0
1769472	0	0
1802240	0	0
1835008	0	0
1867776	0	0
1900544	0	0
1933312	0	0
1966080	0	0
1998848	0	0
2031616	0	0
2064384	0	0
2097152	0	0
2162688	0	0
2228224	0	0
2293760	0	0
2359296	0	0
2424832	0	0
2490368	0	0
2555904	0	0
2621440	0	0
2686976	0	0
2752512	0	0
2818048	0	0
2883584	0	0
2949120	0	0
3014656	0	0
3080192	0	0
3145728	0	0
3211264	0	0
3276800	0	0
3342336	0	0
3407872	0	0
3473408	0	0
3538944	0	0
3604480	0	0
3670016	0	0
3735552	0	0
3801088	0	0
3866624	0	0
3932160	0	0
3997696	0	0
4063232	0	0
4128768	0	0
4194304	0	0
4325376	0	0
4456448	0	0
4587520	0	0
4718592	0	0
4849664	0	0
4980736	0	0
5111808	0	0
5242880	0	0
5373952	0	0
5505024	0	0
5636096	0	0
5767168	0	0
5898240	0	0
6029312	0	0
6160384	0	0
6291456	0	0
6422528	0	0
6553600	0	0
6684672	0	0
6815744	0	0
6946816	0	0
7077888	0	0
7208960	0	0
7340032	0	0
7471104	0	0
7602176	0	0
7733248	0	0
7864320	0	0
7995392	0	0
8126464	0	0
8257536	0	0
8388608	0	0
8650752	0	0
8912896	0	0
9175040	0	0
9437184	0	0
9699328	0	0
9961472	0	0
10223616	0	0
10485760	0	0
10747904	0	0
11010048	0	0
11272192	0	0
11534336	0	0
11796480	0	0
12058624	0	0
12320768	0	0
12582912	0	0
12845056	0	0
13107200	0	0
13369344	0	0
13631488	0	0
13893632	0	0
14155776	0	0
14417920	0	0
14680064	0	0
14942208	0	0
15204352	0	0
15466496	0	0
15728640	0	0
15990784	0	0
16252928	0	0
16515072	0	0
16777216	0	0
17301504	0	0
17825792	0	0
18350080	0	0
18874368	0	0
19398656	0	0
19922944	0	0
20447232	0	0
20971520	0	0
21495808	0	0
22020096	0	0
22544384	0	0
23068672	0	0
23592960	0	0
24117248	0	0
24641536	0	0
25165824	0	0
25690112	0	0
26214400	0	0
26738688	0	0
27262976	0	0
27787264	0	0
28311552	0	0
28835840	0	0
29360128	0	0
29884416	0	0
30408704	0	0
30932992	0	0
31457280	0	0
31981568	0	0
32505856	0	0
33030144	0	0
33554432	0	0
34603008	0	0
35651584	0	0
36700160	0	0
37748736	0	0
38797312	0	0
39845888	0	0
40894464	0	0
41943040	0	0
42991616	0	0
44040192	0	0
45088768	0	0
46137344	0	0
47185920	0	0
48234496	0	0
49283072	0	0
50331648	0	0
51380224	0	0
52428800	0	0
53477376	0	0
54525952	0	0
55574528	0	0
56623104	0	0
57671680	0	0
58720256	0	0
59768832	0	0
60817408	0	0
61865984	0	0
62914560	0	0
63963136	0	0
65011712	0	0
66060288	0	0
67108864	0	0
69206016	0	0
71303168	0	0
73400320	0	0
75497472	0	0
77594624	0	0
79691776	0	0
81788928	0	0
83886080	0	0
85983232	0	0
88080384	0	0
90177536	0	0
92274688	0	0
94371840	0	0
96468992	0	0
98566144	0	0
100663296	0	0
102760448	0	0
104857600	0	0
106954752	0	0
109051904	0	0
111149056	0	0
113246208	0	0
115343360	0	0
117440512	0	0
119537664	0	0
121634816	0	0
123731968	0	0
125829120	0	0
127926272	0	0
130023424	0	0
132120576	0	0
134217728	0	0
138412032	0	0
142606336	0	0
146800640	0	0
150994944	0	0
155189248	0	0
159383552	0	0
163577856	0	0
167772160	0	0
171966464	0	0
176160768	0	0
180355072	0	0
184549376	0	0
188743680	0	0
192937984	0	0
197132288	0	0
201326592	0	0
205520896	0	0
209715200	0	0
213909504	0	0
218103808	0	0
222298112	0	0
226492416	0	0
230686720	0	0
234881024	0	0
239075328	0	0
243269632	0	0
247463936	0	0
251658240	0	0
255852544	0	0
260046848	0	0
264241152	0	0
268435456	0	0
276824064	0	0
285212672	0	0
293601280	0	0
301989888	0	0
310378496	0	0
318767104	0	0
327155712	0	0
335544320	0	0
343932928	0	0
352321536	0	0
360710144	0	0
369098752	0	0
377487360	0	0
385875968	0	0
394264576	0	0
402653184	0	0
411041792	0	0
419430400	0	0
427819008	0	0
436207616	0	0
444596224	0	0
452984832	0	0
461373440	0	0
469762048	0	0
478150656	0	0
486539264	0	0
494927872	0	0
503316480	0	0
511705088	0	0
520093696	0	0
528482304	0	0
536870912	0	0
553648128	0	0
570425344	0	0
587202560	0	0
603979776	0	0
620756992	0	0
637534208	0	0
654311424	0	0
671088640	0	0
687865856	0	0
704643072	0	0
721420288	0	0
738197504	0	0
754974720	0	0
771751936	0	0
788529152	0	0
805306368	0	0
822083584	0	0
838860800	0	0
855638016	0	0
872415232	0	0
889192448	0	0
905969664	0	0
922746880	0	0
939524096	0	0
956301312	0	0
973078528	0	0
989855744	0	0
1006632960	0	0
1023410176	0	0
1040187392	0	0
1056964608	0	0
1073741824	0	0
1107296256	0	0
1140850688	0	0
1174405120	0	0
1207959552	0	0
1241513984	0	0
1275068416	0	0
1308622848	0	0
1342177280	0	0
1375731712	0	0
1409286144	0	0
1442840576	0	0
1476395008	0	0
1509949440	0	0
1543503872	0	0
1577058304	0	0
1610612736	0	0
1644167168	0	0
1677721600	0	0
1711276032	0	0
1744830464	0	0
1778384896	0	0
1811939328	0	0
1845493760	0	0
1879048192	0	0
1912602624	0	0
1946157056	0	0
1979711488	0	0
2013265920	0	0
2046820352	0	0
2080374784	0	0
2113929216	0	0
2147483648	0	0
2214592512	0	0
2281701376	0	0
2348810240	0	0
2415919104	0	0
2483027968	0	0
2550136832	0	0
2617245696	0	0
2684354560	0	0
2751463424	0	0
2818572288	0	0
2885681152	0	0
2952790016	0	0
3019898880	0	0
3087007744	0	0
3154116608	0	0
3221225472	0	0
3288334336	0	0
3355443200	0	0
3422552064	0	0
3489660928	0	0
3556769792	0	0
3623878656	0	0
3690987520	0	0
3758096384	0	0
3825205248	0	0
3892314112	0	0
3959422976	0	0
4026531840	0	0
4093640704	0	0
4160749568	0	0
4227858432	0	0
~~~~~~~~~~Reuse Distance Profiler output end~~~~~~~~~~

Heartbeat CPU 0 instructions: 6000002 cycles: 4104732 heartbeat IPC: 1.99109 cumulative IPC: 1.4616 (Simulation time: 0 hr 0 min 21 sec) 

Region of Interest Statistics
cpu0_DTLB TOTAL     ACCESS:     770065  HIT:     628649  MISS:     141416
cpu0_DTLB LOAD      ACCESS:     485670  HIT:     344525  MISS:     141145
cpu0_DTLB RFO       ACCESS:     284395  HIT:     284124  MISS:        271
cpu0_DTLB PREFETCH  ACCESS:          0  HIT:          0  MISS:          0
cpu0_DTLB WRITEBACK ACCESS:          0  HIT:          0  MISS:          0
cpu0_ITLB TOTAL     ACCESS:     356927  HIT:     356923  MISS:          4
cpu0_ITLB LOAD      ACCESS:     356927  HIT:     356923  MISS:          4
cpu0_ITLB RFO       ACCESS:          0  HIT:          0  MISS:          0
cpu0_ITLB PREFETCH  ACCESS:          0  HIT:          0  MISS:          0
cpu0_ITLB WRITEBACK ACCESS:          0  HIT:          0  MISS:          0
cpu0_L1I TOTAL     ACCESS:        677  HIT:        643  MISS:         34
cpu0_L1I LOAD      ACCESS:        677  HIT:        643  MISS:         34
cpu0_L1I RFO       ACCESS:          0  HIT:          0  MISS:          0
cpu0_L1I PREFETCH  ACCESS:          0  HIT:          0  MISS:          0
cpu0_L1I WRITEBACK ACCESS:          0  HIT:          0  MISS:          0
cpu0_STLB TOTAL     ACCESS:     141421  HIT:     140701  MISS:        720
cpu0_STLB LOAD      ACCESS:     141150  HIT:     140495  MISS:        655
cpu0_STLB RFO       ACCESS:        271  HIT:        206  MISS:         65
cpu0_STLB PREFETCH  ACCESS:          0  HIT:          0  MISS:          0
cpu0_STLB WRITEBACK ACCESS:          0  HIT:          0  MISS:          0
cpu0_L1D TOTAL     ACCESS:     736014  HIT:     585376  MISS:     150638
cpu0_L1D LOAD      ACCESS:     481251  HIT:     337749  MISS:     143502
cpu0_L1D RFO       ACCESS:     254050  HIT:     246973  MISS:       7077
cpu0_L1D PREFETCH  ACCESS:          0  HIT:          0  MISS:          0
cpu0_L1D WRITEBACK ACCESS:          0  HIT:          0  MISS:          0
cpu0_L2C TOTAL     ACCESS:     158751  HIT:      64278  MISS:      94473
cpu0_L2C LOAD      ACCESS:     143536  HIT:      53077  MISS:      90459
cpu0_L2C RFO       ACCESS:       7077  HIT:       3067  MISS:       4010
cpu0_L2C PREFETCH  ACCESS:          0  HIT:          0  MISS:          0
cpu0_L2C WRITEBACK ACCESS:       8079  HIT:       8079  MISS:          0
LLC TOTAL     ACCESS:      98177  HIT:      50902  MISS:      47275
LLC LOAD      ACCESS:      90459  HIT:      47196  MISS:      43263
LLC RFO       ACCESS:       4010  HIT:          6  MISS:       4004
LLC PREFETCH  ACCESS:          0  HIT:          0  MISS:          0
LLC WRITEBACK ACCESS:       3704  HIT:       3699  MISS:          5
~~~~~~~~~~Reuse Distance Profiler output~~~~~~~~~~
0	73776	25840
1	113168	8080
2	57424	5296
3	22368	6240
4	10912	4928
5	9440	5648
6	7424	4736
7	7280	4880
8	6112	4784
9	5984	4352
10	5408	4368
11	5184	4512
12	4640	4160
13	4928	4528
14	4656	4208
15	4208	3968
16	4352	4192
17	4544	4208
18	4112	4000
19	3808	3536
20	3568	3312
21	3616	3456
22	2896	2832
23	3040	2960
24	3008	2896
25	3248	3168
26	3584	3472
27	3168	3120
28	2960	2928
29	3104	2976
30	2816	2816
31	2048	2048
32	2592	2592
33	2864	2864
34	2496	2496
35	2304	2304
36	2528	2528
37	3040	3040
38	2336	2336
39	2032	2032
40	2608	2608
41	2144	2144
42	2160	2160
43	2336	2336
44	2368	2368
45	2160	2160
46	1600	1600
47	1632	1632
48	1680	1680
49	1504	1504
50	2080	2080
51	1680	1680
52	1872	1872
53	1840	1840
54	1760	1760
55	1856	1856
56	1664	1664
57	1632	1632
58	1696	1696
59	2000	2000
60	1584	1584
61	1616	1616
62	1232	1232
63	1392	1392
64	2960	2960
66	2560	2560
68	2464	2464
70	2096	2096
72	2224	2224
74	1856	1856
76	2416	2416
78	1856	1856
80	1856	1856
82	1920	1920
84	2064	2064
86	1984	1984
88	1664	1664
90	1600	1600
92	1392	1392
94	1360	1360
96	1440	1440
98	1408	1408
100	1280	1280
102	1488	1488
104	1264	1264
106	1232	1232
108	1392	1392
110	1088	1088
112	848	848
114	1120	1120
116	816	816
118	816	816
120	1040	1040
122	1056	1056
124	944	944
126	896	896
128	1456	1456
132	1520	1520
136	1520	1520
140	1408	1376
144	1488	1296
148	1296	1296
152	1136	1136
156	912	912
160	944	944
164	688	688
168	832	832
172	608	608
176	688	688
180	432	432
184	736	736
188	400	400
192	528	528
196	416	416
200	672	672
204	512	512
208	384	384
212	416	416
216	400	400
220	304	304
224	400	400
228	256	256
232	272	272
236	272	272
240	304	304
244	368	368
248	400	400
252	352	352
256	528	528
264	608	608
272	528	528
280	608	608
288	592	592
296	384	384
304	480	480
312	528	528
320	352	352
328	336	336
336	272	272
344	528	528
352	288	288
360	352	352
368	336	336
376	368	368
384	528	528
392	368	368
400	368	368
408	512	512
416	448	448
424	336	336
432	208	208
440	448	448
448	192	192
456	256	256
464	400	400
472	256	256
480	240	240
488	224	224
496	256	256
504	160	160
512	336	336
528	384	384
544	272	272
560	656	656
576	736	736
592	352	352
608	448	448
624	400	400
640	464	464
656	544	544
672	304	304
688	448	448
704	320	320
720	480	416
736	384	384
752	368	368
768	464	464
784	336	336
800	336	336
816	352	352
832	544	544
848	544	544
864	432	432
880	304	288
896	144	144
912	304	288
928	368	352
944	416	416
960	224	224
976	208	192
992	208	208
1008	208	208
1024	288	288
1056	400	400
1088	560	544
1120	480	464
1152	384	384
1184	400	400
1216	480	480
1248	336	336
1280	608	592
1312	496	496
1344	352	352
1376	640	624
1408	368	352
1440	512	496
1472	320	288
1504	496	480
1536	496	496
1568	352	352
1600	480	480
1632	240	240
1664	304	288
1696	272	272
1728	320	320
1760	368	352
1792	272	256
1824	256	256
1856	208	208
1888	256	256
1920	208	208
1952	608	608
1984	1488	1488
2016	288	240
2048	736	720
2112	688	688
2176	688	656
2240	784	752
2304	576	544
2368	1008	976
2432	528	528
2496	432	400
2560	400	384
2624	544	512
2688	736	720
2752	608	608
2816	432	432
2880	288	288
2944	560	528
3008	400	384
3072	320	304
3136	384	384
3200	320	304
3264	304	256
3328	448	416
3392	224	224
3456	560	544
3520	256	256
3584	416	368
3648	320	304
3712	384	384
3776	288	272
3840	448	448
3904	368	320
3968	528	496
4032	448	432
4096	1104	1056
4224	768	736
4352	640	592
4480	432	384
4608	512	464
4736	464	448
4864	896	848
4992	992	960
5120	384	336
5248	464	448
5376	432	368
5504	352	352
5632	448	400
5760	432	368
5888	352	336
6016	560	528
6144	304	272
6272	544	528
6400	608	576
6528	352	288
6656	480	448
6784	624	560
6912	512	464
7040	384	336
7168	480	448
7296	416	352
7424	304	304
7552	304	256
7680	208	192
7808	304	224
7936	480	432
8064	480	432
8192	912	832
8448	528	496
8704	672	640
8960	912	832
9216	736	672
9472	800	656
9728	480	416
9984	720	672
10240	416	368
10496	656	544
10752	368	288
11008	832	784
11264	448	384
11520	560	512
11776	544	480
12032	608	528
12288	528	400
12544	448	352
12800	512	480
13056	352	240
13312	560	528
13568	336	288
13824	256	224
14080	336	256
14336	432	368
14592	448	416
14848	448	384
15104	432	432
15360	448	448
15616	304	304
15872	272	272
16128	224	224
16384	384	384
16896	416	416
17408	384	384
17920	544	544
18432	320	320
18944	624	624
19456	496	496
19968	512	512
20480	368	368
20992	560	560
21504	496	496
22016	768	768
22528	320	320
23040	432	432
23552	368	368
24064	304	304
24576	480	480
25088	384	384
25600	496	496
26112	336	336
26624	560	560
27136	256	256
27648	272	272
28160	400	400
28672	336	336
29184	336	336
29696	400	400
30208	448	448
30720	336	336
31232	240	240
31744	288	288
32256	368	368
32768	528	528
33792	656	656
34816	720	720
35840	592	592
36864	544	544
37888	496	496
38912	416	416
39936	496	496
40960	320	320
41984	464	464
43008	528	528
44032	512	512
45056	496	496
46080	368	368
47104	544	544
48128	704	704
49152	400	400
50176	400	400
51200	304	304
52224	448	448
53248	528	528
54272	288	288
55296	448	448
56320	352	352
57344	512	512
58368	544	544
59392	288	288
60416	352	352
61440	576	576
62464	352	352
63488	400	400
64512	256	256
65536	912	912
67584	688	688
69632	704	704
71680	672	672
73728	1120	1120
75776	752	752
77824	704	704
79872	368	368
81920	432	432
83968	640	640
86016	528	528
88064	480	480
90112	464	464
92160	656	656
94208	544	544
96256	640	640
98304	672	672
100352	320	320
102400	688	688
104448	384	384
106496	576	576
108544	704	704
110592	544	544
112640	320	320
114688	448	448
116736	608	608
118784	576	576
120832	448	448
122880	448	448
124928	272	272
126976	560	560
129024	352	352
131072	736	736
135168	800	800
139264	688	688
143360	672	672
147456	656	656
151552	720	720
155648	496	496
159744	704	704
163840	592	592
167936	656	656
172032	672	672
176128	512	512
180224	560	560
184320	400	400
188416	544	544
192512	576	576
196608	576	576
200704	448	448
204800	288	288
208896	496	496
212992	416	416
217088	560	560
221184	384	384
225280	448	448
229376	352	352
233472	448	448
237568	592	592
241664	432	432
245760	368	368
249856	400	400
253952	336	336
258048	320	320
262144	784	784
270336	592	592
278528	592	592
286720	880	880
294912	592	592
303104	672	672
311296	592	592
319488	496	496
327680	384	384
335872	272	272
344064	368	368
352256	320	320
360448	352	352
368640	384	384
376832	304	304
385024	336	336
393216	256	256
401408	240	240
409600	160	160
417792	80	80
425984	240	240
434176	112	112
442368	96	96
450560	144	144
458752	80	80
466944	80	80
475136	192	192
483328	160	160
491520	80	80
499712	192	192
507904	96	96
516096	144	144
524288	128	128
540672	16	16
557056	32	32
573440	144	144
589824	32	32
606208	128	128
622592	112	112
638976	48	48
655360	48	48
671744	0	0
688128	32	32
704512	0	0
720896	0	0
737280	0	0
753664	0	0
770048	0	0
786432	0	0
802816	0	0
819200	0	0
835584	0	0
851968	0	0
868352	0	0
884736	0	0
901120	0	0
917504	0	0
933888	0	0
950272	0	0
966656	0	0
983040	0	0
999424	0	0
1015808	0	0
1032192	0	0
1048576	0	0
1081344	0	0
1114112	0	0
1146880	0	0
1179648	0	0
1212416	0	0
1245184	0	0
1277952	0	0
1310720	0	0
1343488	0	0
1376256	0	0
1409024	0	0
1441792	0	0
1474560	0	0
1507328	0	0
1540096	0	0
1572864	0	0
1605632	0	0
1638400	0	0
1671168	0	0
1703936	0	0
1736704	0	0
1769472	0	0
1802240	0	0
1835008	0	0
1867776	0	0
1900544	0	0
1933312	0	0
1966080	0	0
1998848	0	0
2031616	0	0
2064384	0	0
2097152	0	0
2162688	0	0
2228224	0	0
2293760	0	0
2359296	0	0
2424832	0	0
2490368	0	0
2555904	0	0
2621440	0	0
2686976	0	0
2752512	0	0
2818048	0	0
2883584	0	0
2949120	0	0
3014656	0	0
3080192	0	0
3145728	0	0
3211264	0	0
3276800	0	0
3342336	0	0
3407872	0	0
3473408	0	0
3538944	0	0
3604480	0	0
3670016	0	0
3735552	0	0
3801088	0	0
3866624	0	0
3932160	0	0
3997696	0	0
4063232	0	0
4128768	0	0
4194304	0	0
4325376	0	0
4456448	0	0
4587520	0	0
4718592	0	0
4849664	0	0
4980736	0	0
5111808	0	0
5242880	0	0
5373952	0	0
5505024	0	0
5636096	0	0
5767168	0	0
5898240	0	0
6029312	0	0
6160384	0	0
6291456	0	0
6422528	0	0
6553600	0	0
6684672	0	0
6815744	0	0
6946816	0	0
7077888	0	0
7208960	0	0
7340032	0	0
7471104	0	0
7602176	0	0
7733248	0	0
7864320	0	0
7995392	0	0
8126464	0	0
8257536	0	0
8388608	0	0
8650752	0	0
8912896	0	0
9175040	0	0
9437184	0	0
9699328	0	0
9961472	0	0
10223616	0	0
10485760	0	0
10747904	0	0
11010048	0	0
11272192	0	0
11534336	0	0
11796480	0	0
12058624	0	0
12320768	0	0
12582912	0	0
12845056	0	0
13107200	0	0
13369344	0	0
13631488	0	0
13893632	0	0
14155776	0	0
14417920	0	0
14680064	0	0
14942208	0	0
15204352	0	0
15466496	0	0
15728640	0	0
15990784	0	0
16252928	0	0
16515072	0	0
16777216	0	0
17301504	0	0
17825792	0	0
18350080	0	0
18874368	0	0
19398656	0	0
19922944	0	0
20447232	0	0
20971520	0	0
21495808	0	0
22020096	0	0
22544384	0	0
23068672	0	0
23592960	0	0
24117248	0	0
24641536	0	0
25165824	0	0
25690112	0	0
26214400	0	0
26738688	0	0
27262976	0	0
27787264	0	0
28311552	0	0
28835840	0	0
29360128	0	0
29884416	0	0
30408704	0	0
30932992	0	0
31457280	0	0
31981568	0	0
32505856	0	0
33030144	0	0
33554432	0	0
34603008	0	0
35651584	0	0
36700160	0	0
37748736	0	0
38797312	0	0
39845888	0	0
40894464	0	0
41943040	0	0
42991616	0	0
44040192	0	0
45088768	0	0
46137344	0	0
47185920	0	0
48234496	0	0
49283072	0	0
50331648	0	0
51380224	0	0
52428800	0	0
53477376	0	0
54525952	0	0
55574528	0	0
56623104	0	0
57671680	0	0
58720256	0	0
59768832	0	0
60817408	0	0
61865984	0	0
62914560	0	0
63963136	0	0
65011712	0	0
66060288	0	0
67108864	0	0
69206016	0	0
71303168	0	0
73400320	0	0
75497472	0	0
77594624	0	0
79691776	0	0
81788928	0	0
83886080	0	0
85983232	0	0
88080384	0	0
90177536	0	0
92274688	0	0
94371840	0	0
96468992	0	0
98566144	0	0
100663296	0	0
102760448	0	0
104857600	0	0
106954752	0	0
109051904	0	0
111149056	0	0
113246208	0	0
115343360	0	0
117440512	0	0
119537664	0	0
121634816	0	0
123731968	0	0
125829120	0	0
127926272	0	0
130023424	0	0
132120576	0	0
134217728	0	0
138412032	0	0
142606336	0	0
146800640	0	0
150994944	0	0
155189248	0	0
159383552	0	0
163577856	0	0
167772160	0	0
171966464	0	0
176160768	0	0
180355072	0	0
184549376	0	0
188743680	0	0
192937984	0	0
197132288	0	0
201326592	0	0
205520896	0	0
209715200	0	0
213909504	0	0
218103808	0	0
222298112	0	0
226492416	0	0
230686720	0	0
234881024	0	0
239075328	0	0
243269632	0	0
247463936	0	0
251658240	0	0
255852544	0	0
260046848	0	0
264241152	0	0
268435456	0	0
276824064	0	0
285212672	0	0
293601280	0	0
301989888	0	0
310378496	0	0
318767104	0	0
327155712	0	0
335544320	0	0
343932928	0	0
352321536	0	0
360710144	0	0
369098752	0	0
377487360	0	0
385875968	0	0
394264576	0	0
402653184	0	0
411041792	0	0
419430400	0	0
427819008	0	0
436207616	0	0
444596224	0	0
452984832	0	0
461373440	0	0
469762048	0	0
478150656	0	0
486539264	0	0
494927872	0	0
503316480	0	0
511705088	0	0
520093696	0	0
528482304	0	0
536870912	0	0
553648128	0	0
570425344	0	0
587202560	0	0
603979776	0	0
620756992	0	0
637534208	0	0
654311424	0	0
671088640	0	0
687865856	0	0
704643072	0	0
721420288	0	0
738197504	0	0
754974720	0	0
771751936	0	0
788529152	0	0
805306368	0	0
822083584	0	0
838860800	0	0
855638016	0	0
872415232	0	0
889192448	0	0
905969664	0	0
922746880	0	0
939524096	0	0
956301312	0	0
973078528	0	0
989855744	0	0
1006632960	0	0
1023410176	0	0
1040187392	0	0
1056964608	0	0
1073741824	0	0
1107296256	0	0
1140850688	0	0
1174405120	0	0
1207959552	0	0
1241513984	0	0
1275068416	0	0
1308622848	0	0
1342177280	0	0
1375731712	0	0
1409286144	0	0
1442840576	0	0
1476395008	0	0
1509949440	0	0
1543503872	0	0
1577058304	0	0
1610612736	0	0
1644167168	0	0
1677721600	0	0
1711276032	0	0
1744830464	0	0
1778384896	0	0
1811939328	0	0
1845493760	0	0
1879048192	0	0
1912602624	0	0
1946157056	0	0
1979711488	0	0
2013265920	0	0
2046820352	0	0
2080374784	0	0
2113929216	0	0
2147483648	0	0
2214592512	0	0
2281701376	0	0
2348810240	0	0
2415919104	0	0
2483027968	0	0
2550136832	0	0
2617245696	0	0
2684354560	0	0
2751463424	0	0
2818572288	0	0
2885681152	0	0
2952790016	0	0
3019898880	0	0
3087007744	0	0
3154116608	0	0
3221225472	0	0
3288334336	0	0
3355443200	0	0
3422552064	0	0
3489660928	0	0
3556769792	0	0
3623878656	0	0
3690987520	0	0
3758096384	0	0
3825205248	0	0
3892314112	0	0
3959422976	0	0
4026531840	0	0
4093640704	0	0
4160749568	0	0
4227858432	0	0
~~~~~~~~~~Reuse Distance Profiler output end~~~~~~~~~~

Heartbeat CPU 0 instructions: 8000004 cycles: 5262421 heartbeat IPC: 1.72758 cumulative IPC: 1.52011 (Simulation time: 0 hr 0 min 26 sec) 

Region of Interest Statistics
cpu0_DTLB TOTAL     ACCESS:    1023016  HIT:     829146  MISS:     193870
cpu0_DTLB LOAD      ACCESS:     647256  HIT:     453744  MISS:     193512
cpu0_DTLB RFO       ACCESS:     375760  HIT:     375402  MISS:        358
cpu0_DTLB PREFETCH  ACCESS:          0  HIT:          0  MISS:          0
cpu0_DTLB WRITEBACK ACCESS:          0  HIT:          0  MISS:          0
cpu0_ITLB TOTAL     ACCESS:     474810  HIT:     474806  MISS:          4
cpu0_ITLB LOAD      ACCESS:     474810  HIT:     474806  MISS:          4
cpu0_ITLB RFO       ACCESS:          0  HIT:          0  MISS:          0
cpu0_ITLB PREFETCH  ACCESS:          0  HIT:          0  MISS:          0
cpu0_ITLB WRITEBACK ACCESS:          0  HIT:          0  MISS:          0
cpu0_L1I TOTAL     ACCESS:        885  HIT:        851  MISS:         34
cpu0_L1I LOAD      ACCESS:        885  HIT:        851  MISS:         34
cpu0_L1I RFO       ACCESS:          0  HIT:          0  MISS:          0
cpu0_L1I PREFETCH  ACCESS:          0  HIT:          0  MISS:          0
cpu0_L1I WRITEBACK ACCESS:          0  HIT:          0  MISS:          0
cpu0_STLB TOTAL     ACCESS:     193874  HIT:     193134  MISS:        740
cpu0_STLB LOAD      ACCESS:     193516  HIT:     192861  MISS:        655
cpu0_STLB RFO       ACCESS:        358  HIT:        273  MISS:         85
cpu0_STLB PREFETCH  ACCESS:          0  HIT:          0  MISS:          0
cpu0_STLB WRITEBACK ACCESS:          0  HIT:          0  MISS:          0
cpu0_L1D TOTAL     ACCESS:     978000  HIT:     768538  MISS:     209462
cpu0_L1D LOAD      ACCESS:     641666  HIT:     441685  MISS:     199981
cpu0_L1D RFO       ACCESS:     335601  HIT:     326195  MISS:       9406
cpu0_L1D PREFETCH  ACCESS:          0  HIT:          0  MISS:          0
cpu0_L1D WRITEBACK ACCESS:          0  HIT:          0  MISS:          0
cpu0_L2C TOTAL     ACCESS:     220376  HIT:      89488  MISS:     130888
cpu0_L2C LOAD      ACCESS:     200014  HIT:      74392  MISS:     125622
cpu0_L2C RFO       ACCESS:       9406  HIT:       4144  MISS:       5262
cpu0_L2C PREFETCH  ACCESS:          0  HIT:          0  MISS:          0
cpu0_L2C WRITEBACK ACCESS:      10881  HIT:      10881  MISS:          0
LLC TOTAL     ACCESS:     135818  HIT:      77741  MISS:      58077
LLC LOAD      ACCESS:     125623  HIT:      72813  MISS:      52810
LLC RFO       ACCESS:       5262  HIT:          8  MISS:       5254
LLC PREFETCH  ACCESS:          0  HIT:          0  MISS:          0
LLC WRITEBACK ACCESS:       4929  HIT:       4919  MISS:         10
~~~~~~~~~~Reuse Distance Profiler output~~~~~~~~~~
0	95632	34144
1	149840	10656
2	77024	7008
3	29696	8048
4	14000	6288
5	11728	7216
6	9808	6208
7	9584	6432
8	8192	6336
9	8048	5920
10	6800	5440
11	6880	6000
12	5984	5328
13	6256	5760
14	5792	5168
15	5568	5168
16	5504	5216
17	5776	5312
18	5200	5040
19	4800	4480
20	4608	4320
21	4736	4464
22	3792	3712
23	4080	3968
24	4224	4080
25	4544	4448
26	4768	4576
27	4384	4288
28	3776	3712
29	4016	3872
30	3808	3808
31	2832	2832
32	3408	3408
33	3776	3776
34	3360	3360
35	3072	3072
36	3344	3344
37	3904	3904
38	3008	3008
39	2784	2784
40	3408	3408
41	2944	2944
42	2912	2912
43	2864	2864
44	3296	3296
45	2832	2832
46	2240	2240
47	2576	2576
48	2400	2400
49	2160	2160
50	2688	2688
51	2240	2240
52	2560	2560
53	2512	2512
54	2368	2368
55	2576	2576
56	2208	2208
57	2144	2144
58	2272	2272
59	2592	2592
60	1920	1920
61	2128	2128
62	1680	1680
63	1712	1712
64	4048	4048
66	3392	3392
68	3280	3280
70	2848	2848
72	3088	3088
74	2576	2576
76	3136	3136
78	2528	2528
80	2528	2528
82	2512	2512
84	2832	2832
86	2624	2624
88	2224	2224
90	2256	2256
92	1936	1936
94	1792	1792
96	2080	2080
98	1920	1920
100	1776	1776
102	2048	2048
104	1856	1856
106	1504	1504
108	1760	1760
110	1392	1392
112	1184	1184
114	1600	1600
116	1280	1280
118	1328	1328
120	1264	1264
122	1328	1328
124	1248	1248
126	1104	1104
128	1936	1936
132	2000	2000
136	1920	1920
140	1936	1888
144	1936	1712
148	1728	1728
152	1472	1472
156	1120	1120
160	1248	1248
164	864	864
168	1136	1136
172	848	848
176	944	944
180	544	544
184	912	912
188	592	592
192	752	752
196	544	544
200	736	736
204	656	656
208	512	512
212	496	496
216	528	528
220	464	464
224	496	496
228	352	352
232	384	384
236	384	384
240	416	416
244	464	464
248	528	528
252	432	432
256	720	720
264	768	768
272	656	656
280	672	672
288	688	688
296	624	624
304	640	640
312	656	656
320	512	512
328	496	496
336	304	304
344	624	624
352	368	368
360	560	560
368	544	544
376	464	464
384	624	624
392	384	384
400	416	416
408	624	624
416	608	608
424	400	400
432	352	352
440	560	560
448	320	320
456	304	304
464	528	528
472	368	368
480	352	352
488	304	304
496	336	336
504	240	240
512	384	384
528	480	480
544	336	336
560	944	944
576	832	832
592	464	464
608	528	528
624	528	528
640	528	528
656	688	688
672	352	352
688	560	560
704	400	400
720	608	496
736	480	480
752	384	384
768	528	528
784	368	368
800	544	544
816	400	400
832	752	752
848	592	592
864	528	528
880	352	336
896	208	208
912	384	368
928	464	432
944	496	496
960	272	272
976	272	256
992	272	272
1008	320	320
1024	496	496
1056	640	640
1088	656	640
1120	576	560
1152	432	432
1184	496	496
1216	544	544
1248	416	416
1280	832	816
1312	544	544
1344	400	400
1376	784	768
1408	480	464
1440	704	688
1472	416	368
1504	656	640
1536	592	592
1568	448	448
1600	576	576
1632	304	304
1664	416	400
1696	416	416
1728	384	384
1760	480	448
1792	368	352
1824	352	352
1856	272	272
1888	352	352
1920	304	304
1952	704	704
1984	1664	1664
2016	384	336
2048	800	768
2112	800	800
2176	880	848
2240	848	816
2304	704	672
2368	1120	1088
2432	672	672
2496	560	528
2560	544	496
2624	640	592
2688	832	816
2752	736	720
2816	496	496
2880	320	320
2944	624	592
3008	464	448
3072	400	384
3136	464	464
3200	496	448
3264	496	448
3328	560	528
3392	304	304
3456	688	672
3520	400	384
3584	464	416
3648	336	320
3712	544	544
3776	512	464
3840	656	656
3904	400	352
3968	640	592
4032	512	496
4096	1232	1184
4224	1040	976
4352	848	784
4480	672	624
4608	688	640
4736	624	608
4864	1104	1056
4992	1168	1104
5120	560	496
5248	1120	1104
5376	1056	960
5504	672	656
5632	752	704
5760	576	496
5888	576	544
6016	864	832
6144	448	400
6272	672	640
6400	704	656
6528	464	384
6656	576	528
6784	800	736
6912	688	640
7040	688	608
7168	640	592
7296	496	416
7424	400	400
7552	576	528
7680	336	320
7808	368	288
7936	656	592
8064	592	544
8192	1184	1072
8448	720	656
8704	848	816
8960	1008	912
9216	848	752
9472	1168	992
9728	656	544
9984	992	896
10240	608	544
10496	832	720
10752	608	496
11008	976	896
11264	656	528
11520	720	624
11776	800	720
12032	784	704
12288	672	528
12544	544	448
12800	608	560
13056	576	432
13312	640	608
13568	528	448
13824	576	528
14080	448	368
14336	672	560
14592	688	592
14848	512	448
15104	576	576
15360	688	688
15616	448	448
15872	368	368
16128	272	272
16384	528	528
16896	624	624
17408	592	592
17920	752	752
18432	560	560
18944	688	688
19456	704	704
19968	640	640
20480	464	464
20992	720	720
21504	704	704
22016	912	912
22528	528	528
23040	608	608
23552	544	544
24064	464	464
24576	624	624
25088	544	544
25600	688	688
26112	496	496
26624	704	704
27136	400	400
27648	496	496
28160	624	624
28672	528	528
29184	464	464
29696	736	736
30208	576	576
30720	528	528
31232	496	496
31744	448	448
32256	592	592
32768	880	880
33792	944	944
34816	976	976
35840	864	864
36864	784	784
37888	784	784
38912	624	624
39936	672	672
40960	656	656
41984	592	592
43008	656	656
44032	848	848
45056	688	688
46080	512	512
47104	736	736
48128	848	848
49152	496	496
50176	640	640
51200	496	496
52224	672	672
53248	736	736
54272	384	384
55296	608	608
56320	512	512
57344	720	720
58368	672	672
59392	608	608
60416	640	640
61440	768	768
62464	544	544
63488	576	576
64512	400	400
65536	1296	1296
67584	1136	1136
69632	1120	1120
71680	992	992
73728	1536	1536
75776	1072	1072
77824	944	944
79872	688	688
81920	688	688
83968	880	880
86016	864	864
88064	736	736
90112	704	704
92160	976	976
94208	672	672
96256	1008	1008
98304	1072	1072
100352	576	576
102400	896	896
104448	704	704
106496	832	832
108544	816	816
110592	816	816
112640	464	464
114688	592	592
116736	848	848
118784	720	720
120832	640	640
122880	656	656
124928	480	480
126976	704	704
129024	576	576
131072	1088	1088
135168	992	992
139264	912	912
143360	944	944
147456	880	880
151552	880	880
155648	640	640
159744	1072	1072
163840	816	816
167936	832	832
172032	800	800
176128	736	736
180224	672	672
184320	608	608
188416	672	672
192512	736	736
196608	752	752
200704	720	720
204800	432	432
208896	640	640
212992	544	544
217088	752	752
221184	464	464
225280	592	592
229376	448	448
233472	592	592
237568	720	720
241664	592	592
245760	480	480
249856	608	608
253952	544	544
258048	528	528
262144	1008	1008
270336	800	800
278528	960	960
286720	1120	1120
294912	736	736
303104	1024	1024
311296	800	800
319488	880	880
327680	816	816
335872	512	512
344064	848	848
352256	688	688
360448	736	736
368640	688	688
376832	672	672
385024	592	592
393216	608	608
401408	848	848
409600	544	544
417792	640	640
425984	512	512
434176	432	432
442368	400	400
450560	432	432
458752	496	496
466944	560	560
475136	384	384
483328	464	464
491520	512	512
499712	464	464
507904	272	272
516096	480	480
524288	512	512
540672	448	448
557056	448	448
573440	352	352
589824	256	256
606208	272	272
622592	384	384
638976	288	288
655360	192	192
671744	176	176
688128	336	336
704512	224	224
720896	96	96
737280	160	160
753664	96	96
770048	128	128
786432	96	96
802816	64	64
819200	64	64
835584	32	32
851968	16	16
868352	0	0
884736	16	16
901120	0	0
917504	0	0
933888	0	0
950272	16	16
966656	0	0
983040	0	0
999424	0	0
1015808	0	0
1032192	0	0
1048576	0	0
1081344	0	0
1114112	0	0
1146880	0	0
1179648	0	0
1212416	0	0
1245184	0	0
1277952	0	0
1310720	0	0
1343488	0	0
1376256	0	0
1409024	0	0
1441792	0	0
1474560	0	0
1507328	0	0
1540096	0	0
1572864	0	0
1605632	0	0
1638400	0	0
1671168	0	0
1703936	0	0
1736704	0	0
1769472	0	0
1802240	0	0
1835008	0	0
1867776	0	0
1900544	0	0
1933312	0	0
1966080	0	0
1998848	0	0
2031616	0	0
2064384	0	0
2097152	0	0
2162688	0	0
2228224	0	0
2293760	0	0
2359296	0	0
2424832	0	0
2490368	0	0
2555904	0	0
2621440	0	0
2686976	0	0
2752512	0	0
2818048	0	0
2883584	0	0
2949120	0	0
3014656	0	0
3080192	0	0
3145728	0	0
3211264	0	0
3276800	0	0
3342336	0	0
3407872	0	0
3473408	0	0
3538944	0	0
3604480	0	0
3670016	0	0
3735552	0	0
3801088	0	0
3866624	0	0
3932160	0	0
3997696	0	0
4063232	0	0
4128768	0	0
4194304	0	0
4325376	0	0
4456448	0	0
4587520	0	0
4718592	0	0
4849664	0	0
4980736	0	0
5111808	0	0
5242880	0	0
5373952	0	0
5505024	0	0
5636096	0	0
5767168	0	0
5898240	0	0
6029312	0	0
6160384	0	0
6291456	0	0
6422528	0	0
6553600	0	0
6684672	0	0
6815744	0	0
6946816	0	0
7077888	0	0
7208960	0	0
7340032	0	0
7471104	0	0
7602176	0	0
7733248	0	0
7864320	0	0
7995392	0	0
8126464	0	0
8257536	0	0
8388608	0	0
8650752	0	0
8912896	0	0
9175040	0	0
9437184	0	0
9699328	0	0
9961472	0	0
10223616	0	0
10485760	0	0
10747904	0	0
11010048	0	0
11272192	0	0
11534336	0	0
11796480	0	0
12058624	0	0
12320768	0	0
12582912	0	0
12845056	0	0
13107200	0	0
13369344	0	0
13631488	0	0
13893632	0	0
14155776	0	0
14417920	0	0
14680064	0	0
14942208	0	0
15204352	0	0
15466496	0	0
15728640	0	0
15990784	0	0
16252928	0	0
16515072	0	0
16777216	0	0
17301504	0	0
17825792	0	0
18350080	0	0
18874368	0	0
19398656	0	0
19922944	0	0
20447232	0	0
20971520	0	0
21495808	0	0
22020096	0	0
22544384	0	0
23068672	0	0
23592960	0	0
24117248	0	0
24641536	0	0
25165824	0	0
25690112	0	0
26214400	0	0
26738688	0	0
27262976	0	0
27787264	0	0
28311552	0	0
28835840	0	0
29360128	0	0
29884416	0	0
30408704	0	0
30932992	0	0
31457280	0	0
31981568	0	0
32505856	0	0
33030144	0	0
33554432	0	0
34603008	0	0
35651584	0	0
36700160	0	0
37748736	0	0
38797312	0	0
39845888	0	0
40894464	0	0
41943040	0	0
42991616	0	0
44040192	0	0
45088768	0	0
46137344	0	0
47185920	0	0
48234496	0	0
49283072	0	0
50331648	0	0
51380224	0	0
52428800	0	0
53477376	0	0
54525952	0	0
55574528	0	0
56623104	0	0
57671680	0	0
58720256	0	0
59768832	0	0
60817408	0	0
61865984	0	0
62914560	0	0
63963136	0	0
65011712	0	0
66060288	0	0
67108864	0	0
69206016	0	0
71303168	0	0
73400320	0	0
75497472	0	0
77594624	0	0
79691776	0	0
81788928	0	0
83886080	0	0
85983232	0	0
88080384	0	0
90177536	0	0
92274688	0	0
94371840	0	0
96468992	0	0
98566144	0	0
100663296	0	0
102760448	0	0
104857600	0	0
106954752	0	0
109051904	0	0
111149056	0	0
113246208	0	0
115343360	0	0
117440512	0	0
119537664	0	0
121634816	0	0
123731968	0	0
125829120	0	0
127926272	0	0
130023424	0	0
132120576	0	0
134217728	0	0
138412032	0	0
142606336	0	0
146800640	0	0
150994944	0	0
155189248	0	0
159383552	0	0
163577856	0	0
167772160	0	0
171966464	0	0
176160768	0	0
180355072	0	0
184549376	0	0
188743680	0	0
192937984	0	0
197132288	0	0
201326592	0	0
205520896	0	0
209715200	0	0
213909504	0	0
218103808	0	0
222298112	0	0
226492416	0	0
230686720	0	0
234881024	0	0
239075328	0	0
243269632	0	0
247463936	0	0
251658240	0	0
255852544	0	0
260046848	0	0
264241152	0	0
268435456	0	0
276824064	0	0
285212672	0	0
293601280	0	0
301989888	0	0
310378496	0	0
318767104	0	0
327155712	0	0
335544320	0	0
343932928	0	0
352321536	0	0
360710144	0	0
369098752	0	0
377487360	0	0
385875968	0	0
394264576	0	0
402653184	0	0
411041792	0	0
419430400	0	0
427819008	0	0
436207616	0	0
444596224	0	0
452984832	0	0
461373440	0	0
469762048	0	0
478150656	0	0
486539264	0	0
494927872	0	0
503316480	0	0
511705088	0	0
520093696	0	0
528482304	0	0
536870912	0	0
553648128	0	0
570425344	0	0
587202560	0	0
603979776	0	0
620756992	0	0
637534208	0	0
654311424	0	0
671088640	0	0
687865856	0	0
704643072	0	0
721420288	0	0
738197504	0	0
754974720	0	0
771751936	0	0
788529152	0	0
805306368	0	0
822083584	0	0
838860800	0	0
855638016	0	0
872415232	0	0
889192448	0	0
905969664	0	0
922746880	0	0
939524096	0	0
956301312	0	0
973078528	0	0
989855744	0	0
1006632960	0	0
1023410176	0	0
1040187392	0	0
1056964608	0	0
1073741824	0	0
1107296256	0	0
1140850688	0	0
1174405120	0	0
1207959552	0	0
1241513984	0	0
1275068416	0	0
1308622848	0	0
1342177280	0	0
1375731712	0	0
1409286144	0	0
1442840576	0	0
1476395008	0	0
1509949440	0	0
1543503872	0	0
1577058304	0	0
1610612736	0	0
1644167168	0	0
1677721600	0	0
1711276032	0	0
1744830464	0	0
1778384896	0	0
1811939328	0	0
1845493760	0	0
1879048192	0	0
1912602624	0	0
1946157056	0	0
1979711488	0	0
2013265920	0	0
2046820352	0	0
2080374784	0	0
2113929216	0	0
2147483648	0	0
2214592512	0	0
2281701376	0	0
2348810240	0	0
2415919104	0	0
2483027968	0	0
2550136832	0	0
2617245696	0	0
2684354560	0	0
2751463424	0	0
2818572288	0	0
2885681152	0	0
2952790016	0	0
3019898880	0	0
3087007744	0	0
3154116608	0	0
3221225472	0	0
3288334336	0	0
3355443200	0	0
3422552064	0	0
3489660928	0	0
3556769792	0	0
3623878656	0	0
3690987520	0	0
3758096384	0	0
3825205248	0	0
3892314112	0	0
3959422976	0	0
4026531840	0	0
4093640704	0	0
4160749568	0	0
4227858432	0	0
~~~~~~~~~~Reuse Distance Profiler output end~~~~~~~~~~

Heartbeat CPU 0 instructions: 10000003 cycles: 6239353 heartbeat IPC: 2.04722 cumulative IPC: 1.60265 (Simulation time: 0 hr 0 min 31 sec) 

Region of Interest Statistics
cpu0_DTLB TOTAL     ACCESS:    1284280  HIT:    1048406  MISS:     235874
cpu0_DTLB LOAD      ACCESS:     808715  HIT:     573293  MISS:     235422
cpu0_DTLB RFO       ACCESS:     475565  HIT:     475113  MISS:        452
cpu0_DTLB PREFETCH  ACCESS:          0  HIT:          0  MISS:          0
cpu0_DTLB WRITEBACK ACCESS:          0  HIT:          0  MISS:          0
cpu0_ITLB TOTAL     ACCESS:     618088  HIT:     618084  MISS:          4
cpu0_ITLB LOAD      ACCESS:     618088  HIT:     618084  MISS:          4
cpu0_ITLB RFO       ACCESS:          0  HIT:          0  MISS:          0
cpu0_ITLB PREFETCH  ACCESS:          0  HIT:          0  MISS:          0
cpu0_ITLB WRITEBACK ACCESS:          0  HIT:          0  MISS:          0
cpu0_L1I TOTAL     ACCESS:       1124  HIT:       1090  MISS:         34
cpu0_L1I LOAD      ACCESS:       1124  HIT:       1090  MISS:         34
cpu0_L1I RFO       ACCESS:          0  HIT:          0  MISS:          0
cpu0_L1I PREFETCH  ACCESS:          0  HIT:          0  MISS:          0
cpu0_L1I WRITEBACK ACCESS:          0  HIT:          0  MISS:          0
cpu0_STLB TOTAL     ACCESS:     235878  HIT:     235116  MISS:        762
cpu0_STLB LOAD      ACCESS:     235426  HIT:     234771  MISS:        655
cpu0_STLB RFO       ACCESS:        452  HIT:        345  MISS:        107
cpu0_STLB PREFETCH  ACCESS:          0  HIT:          0  MISS:          0
cpu0_STLB WRITEBACK ACCESS:          0  HIT:          0  MISS:          0
cpu0_L1D TOTAL     ACCESS:    1226211  HIT:     968987  MISS:     257224
cpu0_L1D LOAD      ACCESS:     801169  HIT:     555958  MISS:     245211
cpu0_L1D RFO       ACCESS:     424287  HIT:     412367  MISS:      11920
cpu0_L1D PREFETCH  ACCESS:          0  HIT:          0  MISS:          0
cpu0_L1D WRITEBACK ACCESS:          0  HIT:          0  MISS:          0
cpu0_L2C TOTAL     ACCESS:     271021  HIT:     115669  MISS:     155352
cpu0_L2C LOAD      ACCESS:     245244  HIT:      96567  MISS:     148677
cpu0_L2C RFO       ACCESS:      11920  HIT:       5249  MISS:       6671
cpu0_L2C PREFETCH  ACCESS:          0  HIT:          0  MISS:          0
cpu0_L2C WRITEBACK ACCESS:      13764  HIT:      13764  MISS:          0
LLC TOTAL     ACCESS:     161656  HIT:      96866  MISS:      64790
LLC LOAD      ACCESS:     148677  HIT:      90563  MISS:      58114
LLC RFO       ACCESS:       6671  HIT:         10  MISS:       6661
LLC PREFETCH  ACCESS:          0  HIT:          0  MISS:          0
LLC WRITEBACK ACCESS:       6304  HIT:       6292  MISS:         12
~~~~~~~~~~Reuse Distance Profiler output~~~~~~~~~~
0	121584	43216
1	194560	13472
2	95072	8464
3	36512	10096
4	17008	7904
5	14528	9248
6	11968	7696
7	12096	8320
8	10320	8016
9	10208	7680
10	8560	6912
11	8784	7712
12	7680	6912
13	8064	7408
14	7136	6400
15	7232	6784
16	7104	6656
17	7392	6800
18	6704	6512
19	6128	5792
20	5968	5632
21	6224	5856
22	5024	4896
23	5488	5344
24	5504	5328
25	5648	5504
26	6048	5776
27	5248	5104
28	4816	4736
29	5168	4992
30	4912	4912
31	3824	3824
32	4320	4320
33	4784	4784
34	4128	4128
35	3776	3776
36	4160	4160
37	4752	4752
38	3984	3984
39	3584	3584
40	4224	4224
41	3776	3776
42	3680	3680
43	3552	3552
44	3936	3936
45	3536	3536
46	2992	2992
47	3200	3200
48	2992	2992
49	2912	2912
50	3344	3344
51	2816	2816
52	3104	3104
53	3088	3088
54	3152	3152
55	3136	3136
56	2784	2784
57	2624	2624
58	2752	2752
59	3152	3152
60	2496	2496
61	2672	2672
62	2160	2160
63	2176	2176
64	4880	4880
66	4352	4352
68	4336	4336
70	3712	3712
72	3760	3760
74	3296	3296
76	3776	3776
78	3376	3376
80	3360	3360
82	3136	3136
84	3472	3472
86	3104	3104
88	2832	2832
90	2784	2784
92	2448	2448
94	2304	2304
96	2608	2608
98	2432	2432
100	2192	2192
102	2432	2432
104	2176	2176
106	1840	1840
108	2096	2096
110	1840	1840
112	1488	1488
114	2064	2064
116	1552	1552
118	1648	1648
120	1568	1568
122	1632	1632
124	1600	1600
126	1472	1472
128	2576	2576
132	2704	2704
136	2288	2288
140	2496	2448
144	2448	2192
148	2144	2144
152	1776	1776
156	1520	1520
160	1520	1520
164	1312	1312
168	1360	1360
172	1104	1104
176	1248	1248
180	720	720
184	1152	1152
188	768	768
192	976	976
196	832	832
200	944	944
204	896	896
208	688	688
212	656	656
216	704	704
220	624	624
224	640	640
228	480	480
232	528	528
236	464	464
240	512	512
244	576	576
248	720	720
252	464	464
256	928	928
264	944	944
272	912	912
280	768	768
288	848	848
296	784	784
304	800	800
312	784	784
320	752	752
328	576	576
336	480	480
344	672	672
352	416	416
360	592	592
368	736	736
376	544	544
384	656	656
392	576	576
400	464	464
408	656	656
416	656	656
424	480	480
432	384	384
440	592	592
448	368	368
456	368	368
464	544	544
472	368	368
480	448	448
488	352	352
496	384	384
504	256	256
512	512	512
528	592	592
544	448	448
560	1056	1056
576	896	896
592	608	608
608	912	912
624	688	688
640	592	592
656	784	784
672	416	416
688	576	576
704	416	416
720	688	528
736	560	560
752	512	512
768	608	608
784	384	384
800	640	640
816	480	480
832	848	848
848	656	656
864	624	624
880	464	448
896	272	272
912	464	448
928	624	592
944	640	640
960	368	352
976	400	384
992	368	368
1008	384	384
1024	560	560
1056	816	816
1088	784	752
1120	800	768
1152	848	848
1184	832	832
1216	672	672
1248	496	496
1280	928	896
1312	608	608
1344	416	416
1376	880	864
1408	576	560
1440	768	752
1472	480	432
1504	736	720
1536	608	608
1568	464	464
1600	608	608
1632	384	384
1664	416	400
1696	432	432
1728	400	400
1760	496	464
1792	416	384
1824	416	400
1856	272	272
1888	352	352
1920	400	384
1952	752	752
1984	1744	1744
2016	448	400
2048	976	944
2112	864	864
2176	1008	976
2240	960	928
2304	1024	976
2368	1424	1376
2432	944	944
2496	880	832
2560	912	864
2624	704	640
2688	944	928
2752	784	768
2816	784	752
2880	480	464
2944	688	640
3008	528	496
3072	480	464
3136	576	576
3200	720	656
3264	704	656
3328	752	704
3392	336	336
3456	688	672
3520	432	416
3584	512	464
3648	416	384
3712	624	624
3776	576	512
3840	944	928
3904	480	400
3968	672	608
4032	624	608
4096	1408	1344
4224	1216	1136
4352	1040	976
4480	784	704
4608	752	704
4736	816	800
4864	1200	1152
4992	1440	1376
5120	704	624
5248	1408	1360
5376	1280	1136
5504	784	768
5632	1104	1056
5760	608	528
5888	736	704
6016	1008	960
6144	672	608
6272	736	704
6400	832	736
6528	640	544
6656	864	816
6784	944	864
6912	768	704
7040	768	688
7168	752	688
7296	640	560
7424	560	560
7552	752	688
7680	544	496
7808	464	352
7936	896	816
8064	624	576
8192	1424	1296
8448	848	768
8704	1264	1200
8960	1168	1056
9216	1072	960
9472	1440	1232
9728	880	720
9984	1120	1008
10240	864	768
10496	992	832
10752	688	560
11008	1136	1056
11264	880	672
11520	832	704
11776	1136	976
12032	896	784
12288	816	672
12544	720	576
12800	800	736
13056	736	560
13312	736	704
13568	720	608
13824	704	656
14080	592	496
14336	928	816
14592	1120	1024
14848	640	576
15104	720	720
15360	896	896
15616	624	624
15872	432	432
16128	336	336
16384	656	656
16896	832	832
17408	704	704
17920	864	864
18432	784	784
18944	880	880
19456	1488	1488
19968	1024	1024
20480	512	512
20992	848	848
21504	816	816
22016	1168	1168
22528	784	784
23040	864	864
23552	832	832
24064	496	496
24576	1168	1168
25088	688	688
25600	912	912
26112	576	576
26624	864	864
27136	512	512
27648	704	704
28160	736	736
28672	656	656
29184	576	576
29696	976	976
30208	672	672
30720	704	704
31232	608	608
31744	496	496
32256	688	688
32768	1024	1024
33792	1152	1152
34816	1168	1168
35840	1024	1024
36864	976	976
37888	960	960
38912	832	832
39936	816	816
40960	816	816
41984	752	752
43008	1024	1024
44032	992	992
45056	848	848
46080	688	688
47104	848	848
48128	1056	1056
49152	560	560
50176	752	752
51200	592	592
52224	816	816
53248	912	912
54272	576	576
55296	784	784
56320	592	592
57344	896	896
58368	720	720
59392	880	880
60416	752	752
61440	816	816
62464	720	720
63488	704	704
64512	608	608
65536	1760	1760
67584	1536	1536
69632	1440	1440
71680	1472	1472
73728	1824	1824
75776	1328	1328
77824	1056	1056
79872	832	832
81920	864	864
83968	992	992
86016	976	976
88064	896	896
90112	864	864
92160	1008	1008
94208	848	848
96256	1168	1168
98304	1200	1200
100352	656	656
102400	1024	1024
104448	832	832
106496	960	960
108544	912	912
110592	880	880
112640	640	640
114688	640	640
116736	960	960
118784	784	784
120832	768	768
122880	800	800
124928	624	624
126976	832	832
129024	656	656
131072	1376	1376
135168	1216	1216
139264	1072	1072
143360	1136	1136
147456	1264	1264
151552	1008	1008
155648	912	912
159744	1264	1264
163840	1040	1040
167936	1088	1088
172032	1072	1072
176128	976	976
180224	832	832
184320	720	720
188416	784	784
192512	944	944
196608	992	992
200704	832	832
204800	640	640
208896	768	768
212992	736	736
217088	880	880
221184	736	736
225280	768	768
229376	736	736
233472	912	912
237568	960	960
241664	896	896
245760	816	816
249856	928	928
253952	656	656
258048	736	736
262144	1424	1424
270336	1216	1216
278528	1408	1408
286720	1520	1520
294912	1024	1024
303104	1392	1392
311296	1184	1184
319488	1280	1280
327680	1168	1168
335872	816	816
344064	1136	1136
352256	1072	1072
360448	1104	1104
368640	848	848
376832	880	880
385024	816	816
393216	736	736
401408	992	992
409600	688	688
417792	864	864
425984	608	608
434176	608	608
442368	432	432
450560	576	576
458752	608	608
466944	608	608
475136	528	528
483328	512	512
491520	656	656
499712	512	512
507904	320	320
516096	512	512
524288	624	624
540672	464	464
557056	576	576
573440	432	432
589824	336	336
606208	416	416
622592	432	432
638976	432	432
655360	288	288
671744	304	304
688128	384	384
704512	352	352
720896	176	176
737280	272	272
753664	192	192
770048	240	240
786432	176	176
802816	224	224
819200	176	176
835584	144	144
851968	80	80
868352	48	48
884736	32	32
901120	144	144
917504	32	32
933888	96	96
950272	80	80
966656	64	64
983040	48	48
999424	48	48
1015808	64	64
1032192	48	48
1048576	64	64
1081344	32	32
1114112	16	16
1146880	16	16
1179648	0	0
1212416	0	0
1245184	0	0
1277952	0	0
1310720	0	0
1343488	0	0
1376256	0	0
1409024	0	0
1441792	0	0
1474560	0	0
1507328	0	0
1540096	0	0
1572864	0	0
1605632	0	0
1638400	0	0
1671168	0	0
1703936	0	0
1736704	0	0
1769472	0	0
1802240	0	0
1835008	0	0
1867776	0	0
1900544	0	0
1933312	0	0
1966080	0	0
1998848	0	0
2031616	0	0
2064384	0	0
2097152	0	0
2162688	0	0
2228224	0	0
2293760	0	0
2359296	0	0
2424832	0	0
2490368	0	0
2555904	0	0
2621440	0	0
2686976	0	0
2752512	0	0
2818048	0	0
2883584	0	0
2949120	0	0
3014656	0	0
3080192	0	0
3145728	0	0
3211264	0	0
3276800	0	0
3342336	0	0
3407872	0	0
3473408	0	0
3538944	0	0
3604480	0	0
3670016	0	0
3735552	0	0
3801088	0	0
3866624	0	0
3932160	0	0
3997696	0	0
4063232	0	0
4128768	0	0
4194304	0	0
4325376	0	0
4456448	0	0
4587520	0	0
4718592	0	0
4849664	0	0
4980736	0	0
5111808	0	0
5242880	0	0
5373952	0	0
5505024	0	0
5636096	0	0
5767168	0	0
5898240	0	0
6029312	0	0
6160384	0	0
6291456	0	0
6422528	0	0
6553600	0	0
6684672	0	0
6815744	0	0
6946816	0	0
7077888	0	0
7208960	0	0
7340032	0	0
7471104	0	0
7602176	0	0
7733248	0	0
7864320	0	0
7995392	0	0
8126464	0	0
8257536	0	0
8388608	0	0
8650752	0	0
8912896	0	0
9175040	0	0
9437184	0	0
9699328	0	0
9961472	0	0
10223616	0	0
10485760	0	0
10747904	0	0
11010048	0	0
11272192	0	0
11534336	0	0
11796480	0	0
12058624	0	0
12320768	0	0
12582912	0	0
12845056	0	0
13107200	0	0
13369344	0	0
13631488	0	0
13893632	0	0
14155776	0	0
14417920	0	0
14680064	0	0
14942208	0	0
15204352	0	0
15466496	0	0
15728640	0	0
15990784	0	0
16252928	0	0
16515072	0	0
16777216	0	0
17301504	0	0
17825792	0	0
18350080	0	0
18874368	0	0
19398656	0	0
19922944	0	0
20447232	0	0
20971520	0	0
21495808	0	0
22020096	0	0
22544384	0	0
23068672	0	0
23592960	0	0
24117248	0	0
24641536	0	0
25165824	0	0
25690112	0	0
26214400	0	0
26738688	0	0
27262976	0	0
27787264	0	0
28311552	0	0
28835840	0	0
29360128	0	0
29884416	0	0
30408704	0	0
30932992	0	0
31457280	0	0
31981568	0	0
32505856	0	0
33030144	0	0
33554432	0	0
34603008	0	0
35651584	0	0
36700160	0	0
37748736	0	0
38797312	0	0
39845888	0	0
40894464	0	0
41943040	0	0
42991616	0	0
44040192	0	0
45088768	0	0
46137344	0	0
47185920	0	0
48234496	0	0
49283072	0	0
50331648	0	0
51380224	0	0
52428800	0	0
53477376	0	0
54525952	0	0
55574528	0	0
56623104	0	0
57671680	0	0
58720256	0	0
59768832	0	0
60817408	0	0
61865984	0	0
62914560	0	0
63963136	0	0
65011712	0	0
66060288	0	0
67108864	0	0
69206016	0	0
71303168	0	0
73400320	0	0
75497472	0	0
77594624	0	0
79691776	0	0
81788928	0	0
83886080	0	0
85983232	0	0
88080384	0	0
90177536	0	0
92274688	0	0
94371840	0	0
96468992	0	0
98566144	0	0
100663296	0	0
102760448	0	0
104857600	0	0
106954752	0	0
109051904	0	0
111149056	0	0
113246208	0	0
115343360	0	0
117440512	0	0
119537664	0	0
121634816	0	0
123731968	0	0
125829120	0	0
127926272	0	0
130023424	0	0
132120576	0	0
134217728	0	0
138412032	0	0
142606336	0	0
146800640	0	0
150994944	0	0
155189248	0	0
159383552	0	0
163577856	0	0
167772160	0	0
171966464	0	0
176160768	0	0
180355072	0	0
184549376	0	0
188743680	0	0
192937984	0	0
197132288	0	0
201326592	0	0
205520896	0	0
209715200	0	0
213909504	0	0
218103808	0	0
222298112	0	0
226492416	0	0
230686720	0	0
234881024	0	0
239075328	0	0
243269632	0	0
247463936	0	0
251658240	0	0
255852544	0	0
260046848	0	0
264241152	0	0
268435456	0	0
276824064	0	0
285212672	0	0
293601280	0	0
301989888	0	0
310378496	0	0
318767104	0	0
327155712	0	0
335544320	0	0
343932928	0	0
352321536	0	0
360710144	0	0
369098752	0	0
377487360	0	0
385875968	0	0
394264576	0	0
402653184	0	0
411041792	0	0
419430400	0	0
427819008	0	0
436207616	0	0
444596224	0	0
452984832	0	0
461373440	0	0
469762048	0	0
478150656	0	0
486539264	0	0
494927872	0	0
503316480	0	0
511705088	0	0
520093696	0	0
528482304	0	0
536870912	0	0
553648128	0	0
570425344	0	0
587202560	0	0
603979776	0	0
620756992	0	0
637534208	0	0
654311424	0	0
671088640	0	0
687865856	0	0
704643072	0	0
721420288	0	0
738197504	0	0
754974720	0	0
771751936	0	0
788529152	0	0
805306368	0	0
822083584	0	0
838860800	0	0
855638016	0	0
872415232	0	0
889192448	0	0
905969664	0	0
922746880	0	0
939524096	0	0
956301312	0	0
973078528	0	0
989855744	0	0
1006632960	0	0
1023410176	0	0
1040187392	0	0
1056964608	0	0
1073741824	0	0
1107296256	0	0
1140850688	0	0
1174405120	0	0
1207959552	0	0
1241513984	0	0
1275068416	0	0
1308622848	0	0
1342177280	0	0
1375731712	0	0
1409286144	0	0
1442840576	0	0
1476395008	0	0
1509949440	0	0
1543503872	0	0
1577058304	0	0
1610612736	0	0
1644167168	0	0
1677721600	0	0
1711276032	0	0
1744830464	0	0
1778384896	0	0
1811939328	0	0
1845493760	0	0
1879048192	0	0
1912602624	0	0
1946157056	0	0
1979711488	0	0
2013265920	0	0
2046820352	0	0
2080374784	0	0
2113929216	0	0
2147483648	0	0
2214592512	0	0
2281701376	0	0
2348810240	0	0
2415919104	0	0
2483027968	0	0
2550136832	0	0
2617245696	0	0
2684354560	0	0
2751463424	0	0
2818572288	0	0
2885681152	0	0
2952790016	0	0
3019898880	0	0
3087007744	0	0
3154116608	0	0
3221225472	0	0
3288334336	0	0
3355443200	0	0
3422552064	0	0
3489660928	0	0
3556769792	0	0
3623878656	0	0
3690987520	0	0
3758096384	0	0
3825205248	0	0
3892314112	0	0
3959422976	0	0
4026531840	0	0
4093640704	0	0
4160749568	0	0
4227858432	0	0
~~~~~~~~~~Reuse Distance Profiler output end~~~~~~~~~~

Finished CPU 0 instructions: 10000000 cycles: 6239428 cumulative IPC: 1.60271 (Simulation time: 0 hr 0 min 31 sec) 

ChampSim completed all CPUs

Region of Interest Statistics

CPU 0 cumulative IPC: 1.60271 instructions: 10000000 cycles: 6239428
cpu0_DTLB TOTAL     ACCESS:    1284400  HIT:    1048505  MISS:     235895
cpu0_DTLB LOAD      ACCESS:     808793  HIT:     573351  MISS:     235442
cpu0_DTLB RFO       ACCESS:     475607  HIT:     475154  MISS:        453
cpu0_DTLB PREFETCH  ACCESS:          0  HIT:          0  MISS:          0
cpu0_DTLB WRITEBACK ACCESS:          0  HIT:          0  MISS:          0
cpu0_DTLB TRANSLATION ACCESS:          0  HIT:          0  MISS:          0
cpu0_DTLB PREFETCH  REQUESTED:          0  ISSUED:          0  USEFUL:          0  USELESS:          0
cpu0_DTLB AVERAGE MISS LATENCY: 9.41976 cycles
cpu0_ITLB TOTAL     ACCESS:     618183  HIT:     618179  MISS:          4
cpu0_ITLB LOAD      ACCESS:     618183  HIT:     618179  MISS:          4
cpu0_ITLB RFO       ACCESS:          0  HIT:          0  MISS:          0
cpu0_ITLB PREFETCH  ACCESS:          0  HIT:          0  MISS:          0
cpu0_ITLB WRITEBACK ACCESS:          0  HIT:          0  MISS:          0
cpu0_ITLB TRANSLATION ACCESS:          0  HIT:          0  MISS:          0
cpu0_ITLB PREFETCH  REQUESTED:          0  ISSUED:          0  USEFUL:          0  USELESS:          0
cpu0_ITLB AVERAGE MISS LATENCY: 217.25 cycles
cpu0_L1I TOTAL     ACCESS:       1124  HIT:       1090  MISS:         34
cpu0_L1I LOAD      ACCESS:       1124  HIT:       1090  MISS:         34
cpu0_L1I RFO       ACCESS:          0  HIT:          0  MISS:          0
cpu0_L1I PREFETCH  ACCESS:          0  HIT:          0  MISS:          0
cpu0_L1I WRITEBACK ACCESS:          0  HIT:          0  MISS:          0
cpu0_L1I TRANSLATION ACCESS:          0  HIT:          0  MISS:          0
cpu0_L1I PREFETCH  REQUESTED:          0  ISSUED:          0  USEFUL:          0  USELESS:          0
cpu0_L1I AVERAGE MISS LATENCY: 196.029 cycles
cpu0_STLB TOTAL     ACCESS:     235899  HIT:     235137  MISS:        762
cpu0_STLB LOAD      ACCESS:     235446  HIT:     234791  MISS:        655
cpu0_STLB RFO       ACCESS:        453  HIT:        346  MISS:        107
cpu0_STLB PREFETCH  ACCESS:          0  HIT:          0  MISS:          0
cpu0_STLB WRITEBACK ACCESS:          0  HIT:          0  MISS:          0
cpu0_STLB TRANSLATION ACCESS:          0  HIT:          0  MISS:          0
cpu0_STLB PREFETCH  REQUESTED:          0  ISSUED:          0  USEFUL:          0  USELESS:          0
cpu0_STLB AVERAGE MISS LATENCY: 130.928 cycles
cpu0_L1D TOTAL     ACCESS:    1226326  HIT:     969090  MISS:     257236
cpu0_L1D LOAD      ACCESS:     801245  HIT:     556022  MISS:     245223
cpu0_L1D RFO       ACCESS:     424326  HIT:     412406  MISS:      11920
cpu0_L1D PREFETCH  ACCESS:          0  HIT:          0  MISS:          0
cpu0_L1D WRITEBACK ACCESS:          0  HIT:          0  MISS:          0
cpu0_L1D TRANSLATION ACCESS:        755  HIT:        662  MISS:         93
cpu0_L1D PREFETCH  REQUESTED:          0  ISSUED:          0  USEFUL:          0  USELESS:          0
cpu0_L1D AVERAGE MISS LATENCY: 93.1558 cycles
cpu0_L2C TOTAL     ACCESS:     271035  HIT:     115672  MISS:     155363
cpu0_L2C LOAD      ACCESS:     245256  HIT:      96568  MISS:     148688
cpu0_L2C RFO       ACCESS:      11920  HIT:       5249  MISS:       6671
cpu0_L2C PREFETCH  ACCESS:          0  HIT:          0  MISS:          0
cpu0_L2C WRITEBACK ACCESS:      13766  HIT:      13766  MISS:          0
cpu0_L2C TRANSLATION ACCESS:         93  HIT:         89  MISS:          4
cpu0_L2C PREFETCH  REQUESTED:          0  ISSUED:          0  USEFUL:          0  USELESS:          0
cpu0_L2C AVERAGE MISS LATENCY: 136.062 cycles
LLC TOTAL     ACCESS:     161667  HIT:      96873  MISS:      64794
LLC LOAD      ACCESS:     148688  HIT:      90570  MISS:      58118
LLC RFO       ACCESS:       6671  HIT:         10  MISS:       6661
LLC PREFETCH  ACCESS:          0  HIT:          0  MISS:          0
LLC WRITEBACK ACCESS:       6304  HIT:       6292  MISS:         12
LLC TRANSLATION ACCESS:          4  HIT:          1  MISS:          3
LLC PREFETCH  REQUESTED:          0  ISSUED:          0  USEFUL:          0  USELESS:          0
LLC AVERAGE MISS LATENCY: 275.89 cycles
~~~~~~~~~~Reuse Distance Profiler output~~~~~~~~~~
0	121584	43216
1	194560	13472
2	95088	8464
3	36512	10096
4	17008	7904
5	14528	9248
6	11968	7696
7	12096	8320
8	10320	8016
9	10208	7680
10	8560	6912
11	8784	7712
12	7680	6912
13	8064	7408
14	7136	6400
15	7232	6784
16	7104	6656
17	7392	6800
18	6704	6512
19	6128	5792
20	5968	5632
21	6224	5856
22	5024	4896
23	5488	5344
24	5504	5328
25	5680	5536
26	6048	5776
27	5248	5104
28	4816	4736
29	5168	4992
30	4912	4912
31	3824	3824
32	4320	4320
33	4784	4784
34	4128	4128
35	3776	3776
36	4160	4160
37	4752	4752
38	3984	3984
39	3584	3584
40	4224	4224
41	3776	3776
42	3680	3680
43	3552	3552
44	3936	3936
45	3536	3536
46	2992	2992
47	3200	3200
48	2992	2992
49	2912	2912
50	3344	3344
51	2816	2816
52	3104	3104
53	3088	3088
54	3152	3152
55	3136	3136
56	2784	2784
57	2624	2624
58	2752	2752
59	3152	3152
60	2496	2496
61	2688	2688
62	2160	2160
63	2176	2176
64	4880	4880
66	4352	4352
68	4336	4336
70	3712	3712
72	3760	3760
74	3296	3296
76	3776	3776
78	3376	3376
80	3360	3360
82	3136	3136
84	3472	3472
86	3104	3104
88	2832	2832
90	2784	2784
92	2448	2448
94	2304	2304
96	2608	2608
98	2432	2432
100	2192	2192
102	2432	2432
104	2176	2176
106	1840	1840
108	2096	2096
110	1840	1840
112	1488	1488
114	2064	2064
116	1552	1552
118	1648	1648
120	1568	1568
122	1632	1632
124	1600	1600
126	1472	1472
128	2576	2576
132	2704	2704
136	2288	2288
140	2496	2448
144	2448	2192
148	2144	2144
152	1776	1776
156	1520	1520
160	1520	1520
164	1312	1312
168	1360	1360
172	1104	1104
176	1248	1248
180	720	720
184	1152	1152
188	768	768
192	976	976
196	832	832
200	944	944
204	896	896
208	688	688
212	656	656
216	704	704
220	624	624
224	640	640
228	480	480
232	528	528
236	464	464
240	512	512
244	576	576
248	720	720
252	464	464
256	928	928
264	944	944
272	912	912
280	768	768
288	848	848
296	784	784
304	800	800
312	784	784
320	752	752
328	576	576
336	480	480
344	672	672
352	416	416
360	592	592
368	736	736
376	544	544
384	656	656
392	576	576
400	464	464
408	656	656
416	656	656
424	480	480
432	384	384
440	592	592
448	368	368
456	368	368
464	544	544
472	368	368
480	448	448
488	352	352
496	384	384
504	256	256
512	512	512
528	592	592
544	448	448
560	1056	1056
576	896	896
592	608	608
608	912	912
624	688	688
640	592	592
656	784	784
672	416	416
688	576	576
704	416	416
720	688	528
736	560	560
752	512	512
768	608	608
784	384	384
800	640	640
816	480	480
832	848	848
848	656	656
864	624	624
880	464	448
896	272	272
912	464	448
928	624	592
944	640	640
960	368	352
976	400	384
992	368	368
1008	384	384
1024	560	560
1056	816	816
1088	784	752
1120	800	768
1152	848	848
1184	832	832
1216	672	672
1248	496	496
1280	928	896
1312	608	608
1344	416	416
1376	880	864
1408	576	560
1440	768	752
1472	480	432
1504	736	720
1536	608	608
1568	464	464
1600	608	608
1632	384	384
1664	416	400
1696	432	432
1728	400	400
1760	496	464
1792	416	384
1824	416	400
1856	272	272
1888	352	352
1920	400	384
1952	752	752
1984	1744	1744
2016	448	400
2048	976	944
2112	864	864
2176	1008	976
2240	960	928
2304	1024	976
2368	1424	1376
2432	944	944
2496	880	832
2560	912	864
2624	704	640
2688	944	928
2752	784	768
2816	784	752
2880	480	464
2944	688	640
3008	528	496
3072	480	464
3136	576	576
3200	720	656
3264	704	656
3328	752	704
3392	336	336
3456	688	672
3520	432	416
3584	512	464
3648	416	384
3712	624	624
3776	576	512
3840	944	928
3904	480	400
3968	672	608
4032	624	608
4096	1408	1344
4224	1216	1136
4352	1040	976
4480	784	704
4608	752	704
4736	816	800
4864	1200	1152
4992	1440	1376
5120	704	624
5248	1408	1360
5376	1280	1136
5504	784	768
5632	1104	1056
5760	608	528
5888	736	704
6016	1008	960
6144	672	608
6272	736	704
6400	832	736
6528	640	544
6656	864	816
6784	944	864
6912	768	704
7040	768	688
7168	752	688
7296	640	560
7424	560	560
7552	752	688
7680	544	496
7808	464	352
7936	896	816
8064	624	576
8192	1424	1296
8448	848	768
8704	1264	1200
8960	1168	1056
9216	1072	960
9472	1440	1232
9728	880	720
9984	1120	1008
10240	864	768
10496	992	832
10752	688	560
11008	1136	1056
11264	880	672
11520	832	704
11776	1136	976
12032	896	784
12288	816	672
12544	720	576
12800	800	736
13056	736	560
13312	736	704
13568	720	608
13824	704	656
14080	592	496
14336	928	816
14592	1120	1024
14848	640	576
15104	720	720
15360	896	896
15616	624	624
15872	432	432
16128	336	336
16384	656	656
16896	832	832
17408	704	704
17920	864	864
18432	784	784
18944	880	880
19456	1488	1488
19968	1024	1024
20480	512	512
20992	848	848
21504	816	816
22016	1168	1168
22528	784	784
23040	864	864
23552	832	832
24064	496	496
24576	1168	1168
25088	688	688
25600	912	912
26112	576	576
26624	864	864
27136	512	512
27648	704	704
28160	736	736
28672	656	656
29184	576	576
29696	976	976
30208	672	672
30720	704	704
31232	608	608
31744	496	496
32256	688	688
32768	1024	1024
33792	1152	1152
34816	1168	1168
35840	1024	1024
36864	976	976
37888	960	960
38912	832	832
39936	816	816
40960	816	816
41984	752	752
43008	1024	1024
44032	992	992
45056	848	848
46080	688	688
47104	848	848
48128	1056	1056
49152	560	560
50176	752	752
51200	592	592
52224	816	816
53248	912	912
54272	576	576
55296	784	784
56320	592	592
57344	896	896
58368	720	720
59392	880	880
60416	752	752
61440	816	816
62464	720	720
63488	704	704
64512	608	608
65536	1760	1760
67584	1536	1536
69632	1440	1440
71680	1472	1472
73728	1824	1824
75776	1328	1328
77824	1056	1056
79872	832	832
81920	864	864
83968	992	992
86016	976	976
88064	896	896
90112	864	864
92160	1008	1008
94208	848	848
96256	1168	1168
98304	1200	1200
100352	656	656
102400	1024	1024
104448	832	832
106496	960	960
108544	912	912
110592	880	880
112640	640	640
114688	640	640
116736	960	960
118784	784	784
120832	768	768
122880	800	800
124928	624	624
126976	832	832
129024	656	656
131072	1376	1376
135168	1216	1216
139264	1072	1072
143360	1136	1136
147456	1264	1264
151552	1008	1008
155648	912	912
159744	1264	1264
163840	1040	1040
167936	1088	1088
172032	1072	1072
176128	976	976
180224	832	832
184320	720	720
188416	784	784
192512	944	944
196608	992	992
200704	832	832
204800	640	640
208896	768	768
212992	736	736
217088	880	880
221184	736	736
225280	768	768
229376	736	736
233472	912	912
237568	960	960
241664	896	896
245760	816	816
249856	928	928
253952	656	656
258048	736	736
262144	1424	1424
270336	1232	1232
278528	1408	1408
286720	1520	1520
294912	1024	1024
303104	1392	1392
311296	1184	1184
319488	1280	1280
327680	1168	1168
335872	816	816
344064	1136	1136
352256	1072	1072
360448	1104	1104
368640	848	848
376832	880	880
385024	816	816
393216	736	736
401408	992	992
409600	688	688
417792	864	864
425984	608	608
434176	608	608
442368	432	432
450560	576	576
458752	608	608
466944	608	608
475136	528	528
483328	512	512
491520	656	656
499712	512	512
507904	320	320
516096	512	512
524288	624	624
540672	464	464
557056	576	576
573440	432	432
589824	336	336
606208	416	416
622592	432	432
638976	432	432
655360	288	288
671744	304	304
688128	384	384
704512	352	352
720896	176	176
737280	272	272
753664	192	192
770048	240	240
786432	176	176
802816	224	224
819200	176	176
835584	144	144
851968	80	80
868352	48	48
884736	32	32
901120	144	144
917504	32	32
933888	96	96
950272	80	80
966656	64	64
983040	48	48
999424	48	48
1015808	64	64
1032192	48	48
1048576	64	64
1081344	32	32
1114112	16	16
1146880	16	16
1179648	0	0
1212416	0	0
1245184	0	0
1277952	0	0
1310720	0	0
1343488	0	0
1376256	0	0
1409024	0	0
1441792	0	0
1474560	0	0
1507328	0	0
1540096	0	0
1572864	0	0
1605632	0	0
1638400	0	0
1671168	0	0
1703936	0	0
1736704	0	0
1769472	0	0
1802240	0	0
1835008	0	0
1867776	0	0
1900544	0	0
1933312	0	0
1966080	0	0
1998848	0	0
2031616	0	0
2064384	0	0
2097152	0	0
2162688	0	0
2228224	0	0
2293760	0	0
2359296	0	0
2424832	0	0
2490368	0	0
2555904	0	0
2621440	0	0
2686976	0	0
2752512	0	0
2818048	0	0
2883584	0	0
2949120	0	0
3014656	0	0
3080192	0	0
3145728	0	0
3211264	0	0
3276800	0	0
3342336	0	0
3407872	0	0
3473408	0	0
3538944	0	0
3604480	0	0
3670016	0	0
3735552	0	0
3801088	0	0
3866624	0	0
3932160	0	0
3997696	0	0
4063232	0	0
4128768	0	0
4194304	0	0
4325376	0	0
4456448	0	0
4587520	0	0
4718592	0	0
4849664	0	0
4980736	0	0
5111808	0	0
5242880	0	0
5373952	0	0
5505024	0	0
5636096	0	0
5767168	0	0
5898240	0	0
6029312	0	0
6160384	0	0
6291456	0	0
6422528	0	0
6553600	0	0
6684672	0	0
6815744	0	0
6946816	0	0
7077888	0	0
7208960	0	0
7340032	0	0
7471104	0	0
7602176	0	0
7733248	0	0
7864320	0	0
7995392	0	0
8126464	0	0
8257536	0	0
8388608	0	0
8650752	0	0
8912896	0	0
9175040	0	0
9437184	0	0
9699328	0	0
9961472	0	0
10223616	0	0
10485760	0	0
10747904	0	0
11010048	0	0
11272192	0	0
11534336	0	0
11796480	0	0
12058624	0	0
12320768	0	0
12582912	0	0
12845056	0	0
13107200	0	0
13369344	0	0
13631488	0	0
13893632	0	0
14155776	0	0
14417920	0	0
14680064	0	0
14942208	0	0
15204352	0	0
15466496	0	0
15728640	0	0
15990784	0	0
16252928	0	0
16515072	0	0
16777216	0	0
17301504	0	0
17825792	0	0
18350080	0	0
18874368	0	0
19398656	0	0
19922944	0	0
20447232	0	0
20971520	0	0
21495808	0	0
22020096	0	0
22544384	0	0
23068672	0	0
23592960	0	0
24117248	0	0
24641536	0	0
25165824	0	0
25690112	0	0
26214400	0	0
26738688	0	0
27262976	0	0
27787264	0	0
28311552	0	0
28835840	0	0
29360128	0	0
29884416	0	0
30408704	0	0
30932992	0	0
31457280	0	0
31981568	0	0
32505856	0	0
33030144	0	0
33554432	0	0
34603008	0	0
35651584	0	0
36700160	0	0
37748736	0	0
38797312	0	0
39845888	0	0
40894464	0	0
41943040	0	0
42991616	0	0
44040192	0	0
45088768	0	0
46137344	0	0
47185920	0	0
48234496	0	0
49283072	0	0
50331648	0	0
51380224	0	0
52428800	0	0
53477376	0	0
54525952	0	0
55574528	0	0
56623104	0	0
57671680	0	0
58720256	0	0
59768832	0	0
60817408	0	0
61865984	0	0
62914560	0	0
63963136	0	0
65011712	0	0
66060288	0	0
67108864	0	0
69206016	0	0
71303168	0	0
73400320	0	0
75497472	0	0
77594624	0	0
79691776	0	0
81788928	0	0
83886080	0	0
85983232	0	0
88080384	0	0
90177536	0	0
92274688	0	0
94371840	0	0
96468992	0	0
98566144	0	0
100663296	0	0
102760448	0	0
104857600	0	0
106954752	0	0
109051904	0	0
111149056	0	0
113246208	0	0
115343360	0	0
117440512	0	0
119537664	0	0
121634816	0	0
123731968	0	0
125829120	0	0
127926272	0	0
130023424	0	0
132120576	0	0
134217728	0	0
138412032	0	0
142606336	0	0
146800640	0	0
150994944	0	0
155189248	0	0
159383552	0	0
163577856	0	0
167772160	0	0
171966464	0	0
176160768	0	0
180355072	0	0
184549376	0	0
188743680	0	0
192937984	0	0
197132288	0	0
201326592	0	0
205520896	0	0
209715200	0	0
213909504	0	0
218103808	0	0
222298112	0	0
226492416	0	0
230686720	0	0
234881024	0	0
239075328	0	0
243269632	0	0
247463936	0	0
251658240	0	0
255852544	0	0
260046848	0	0
264241152	0	0
268435456	0	0
276824064	0	0
285212672	0	0
293601280	0	0
301989888	0	0
310378496	0	0
318767104	0	0
327155712	0	0
335544320	0	0
343932928	0	0
352321536	0	0
360710144	0	0
369098752	0	0
377487360	0	0
385875968	0	0
394264576	0	0
402653184	0	0
411041792	0	0
419430400	0	0
427819008	0	0
436207616	0	0
444596224	0	0
452984832	0	0
461373440	0	0
469762048	0	0
478150656	0	0
486539264	0	0
494927872	0	0
503316480	0	0
511705088	0	0
520093696	0	0
528482304	0	0
536870912	0	0
553648128	0	0
570425344	0	0
587202560	0	0
603979776	0	0
620756992	0	0
637534208	0	0
654311424	0	0
671088640	0	0
687865856	0	0
704643072	0	0
721420288	0	0
738197504	0	0
754974720	0	0
771751936	0	0
788529152	0	0
805306368	0	0
822083584	0	0
838860800	0	0
855638016	0	0
872415232	0	0
889192448	0	0
905969664	0	0
922746880	0	0
939524096	0	0
956301312	0	0
973078528	0	0
989855744	0	0
1006632960	0	0
1023410176	0	0
1040187392	0	0
1056964608	0	0
1073741824	0	0
1107296256	0	0
1140850688	0	0
1174405120	0	0
1207959552	0	0
1241513984	0	0
1275068416	0	0
1308622848	0	0
1342177280	0	0
1375731712	0	0
1409286144	0	0
1442840576	0	0
1476395008	0	0
1509949440	0	0
1543503872	0	0
1577058304	0	0
1610612736	0	0
1644167168	0	0
1677721600	0	0
1711276032	0	0
1744830464	0	0
1778384896	0	0
1811939328	0	0
1845493760	0	0
1879048192	0	0
1912602624	0	0
1946157056	0	0
1979711488	0	0
2013265920	0	0
2046820352	0	0
2080374784	0	0
2113929216	0	0
2147483648	0	0
2214592512	0	0
2281701376	0	0
2348810240	0	0
2415919104	0	0
2483027968	0	0
2550136832	0	0
2617245696	0	0
2684354560	0	0
2751463424	0	0
2818572288	0	0
2885681152	0	0
2952790016	0	0
3019898880	0	0
3087007744	0	0
3154116608	0	0
3221225472	0	0
3288334336	0	0
3355443200	0	0
3422552064	0	0
3489660928	0	0
3556769792	0	0
3623878656	0	0
3690987520	0	0
3758096384	0	0
3825205248	0	0
3892314112	0	0
3959422976	0	0
4026531840	0	0
4093640704	0	0
4160749568	0	0
4227858432	0	0
~~~~~~~~~~Reuse Distance Profiler output end~~~~~~~~~~


DRAM Statistics
 CHANNEL 0
 RQ ROW_BUFFER_HIT:       4159  ROW_BUFFER_MISS:      60623
 DBUS AVG_CONGESTED_CYCLE:    3.84756
 WQ ROW_BUFFER_HIT:       1170  ROW_BUFFER_MISS:       2635  FULL:          0


CPU 0 Branch Prediction Accuracy: 97.3915% MPKI: 4.079 Average ROB Occupancy at Mispredict: 219.709
Branch type MPKI
BRANCH_DIRECT_JUMP: 0.0007
BRANCH_INDIRECT: 0
BRANCH_CONDITIONAL: 4.0769
BRANCH_DIRECT_CALL: 0.0006
BRANCH_INDIRECT_CALL: 0
BRANCH_RETURN: 0.0008

