
*** ChampSim Multicore Out-of-Order Simulator ***

Warmup Instructions: 100000000
Simulation Instructions: 1500000000
Number of CPUs: 1
Off-chip DRAM Size: 4 GiB Channels: 1 Width: 64-bit Data Rate: 3200 MT/s

VirtualMemory physical capacity: 8588881920 num_ppages: 2096895
VirtualMemory page size: 4096 log2_page_size: 12

CPU 0 runs traces/400.perlbench-41B.champsimtrace.xz
CPU 0 Bimodal branch predictor
Basic BTB sets: 1024 ways: 8 indirect buffer size: 4096 RAS size: 64
Initializing LRU.
Initializing LRU.
Initializing LRU.
Initializing LRU.
Initializing rdLRU.
Initializing LRU.
Initializing LRU.
Heartbeat CPU 0 instructions: 10000001 cycles: 2501286 heartbeat IPC: 3.99794 cumulative IPC: 3.99794 (Simulation time: 0 hr 0 min 33 sec) 
Heartbeat CPU 0 instructions: 20000003 cycles: 5105895 heartbeat IPC: 3.83935 cumulative IPC: 3.91704 (Simulation time: 0 hr 1 min 9 sec) 
Heartbeat CPU 0 instructions: 30000003 cycles: 7605895 heartbeat IPC: 4 cumulative IPC: 3.94431 (Simulation time: 0 hr 1 min 40 sec) 
Heartbeat CPU 0 instructions: 40000003 cycles: 10105895 heartbeat IPC: 4 cumulative IPC: 3.95809 (Simulation time: 0 hr 2 min 12 sec) 
Heartbeat CPU 0 instructions: 50000003 cycles: 12605895 heartbeat IPC: 4 cumulative IPC: 3.9664 (Simulation time: 0 hr 2 min 44 sec) 
Heartbeat CPU 0 instructions: 60000003 cycles: 15105895 heartbeat IPC: 4 cumulative IPC: 3.97196 (Simulation time: 0 hr 3 min 15 sec) 
Heartbeat CPU 0 instructions: 70000003 cycles: 17605895 heartbeat IPC: 4 cumulative IPC: 3.97594 (Simulation time: 0 hr 3 min 47 sec) 
Heartbeat CPU 0 instructions: 80000003 cycles: 20105895 heartbeat IPC: 4 cumulative IPC: 3.97893 (Simulation time: 0 hr 4 min 19 sec) 
Heartbeat CPU 0 instructions: 90000003 cycles: 22605895 heartbeat IPC: 4 cumulative IPC: 3.98126 (Simulation time: 0 hr 4 min 50 sec) 
Heartbeat CPU 0 instructions: 100000003 cycles: 25105895 heartbeat IPC: 4 cumulative IPC: 3.98313 (Simulation time: 0 hr 5 min 22 sec) 

Warmup complete CPU 0 instructions: 100000003 cycles: 25105895 (Simulation time: 0 hr 5 min 22 sec) 

Heartbeat CPU 0 instructions: 110000001 cycles: 34431607 heartbeat IPC: 1.0723 cumulative IPC: 1.0723 (Simulation time: 0 hr 5 min 59 sec) 
Heartbeat CPU 0 instructions: 120000002 cycles: 44600444 heartbeat IPC: 0.983397 cumulative IPC: 1.02593 (Simulation time: 0 hr 6 min 36 sec) 
Heartbeat CPU 0 instructions: 130000002 cycles: 54419842 heartbeat IPC: 1.01839 cumulative IPC: 1.0234 (Simulation time: 0 hr 7 min 14 sec) 
Heartbeat CPU 0 instructions: 140000002 cycles: 63920536 heartbeat IPC: 1.05255 cumulative IPC: 1.03054 (Simulation time: 0 hr 7 min 51 sec) 
Heartbeat CPU 0 instructions: 150000004 cycles: 73459383 heartbeat IPC: 1.04834 cumulative IPC: 1.03405 (Simulation time: 0 hr 8 min 27 sec) 
Heartbeat CPU 0 instructions: 160000000 cycles: 82526474 heartbeat IPC: 1.10289 cumulative IPC: 1.04492 (Simulation time: 0 hr 9 min 2 sec) 
Heartbeat CPU 0 instructions: 170000000 cycles: 97002461 heartbeat IPC: 0.690799 cumulative IPC: 0.973621 (Simulation time: 0 hr 9 min 49 sec) 
Heartbeat CPU 0 instructions: 180000000 cycles: 111307025 heartbeat IPC: 0.699078 cumulative IPC: 0.928062 (Simulation time: 0 hr 10 min 43 sec) 
Heartbeat CPU 0 instructions: 190000002 cycles: 127235356 heartbeat IPC: 0.627812 cumulative IPC: 0.881234 (Simulation time: 0 hr 11 min 38 sec) 
Heartbeat CPU 0 instructions: 200000004 cycles: 136930579 heartbeat IPC: 1.03144 cumulative IPC: 0.894257 (Simulation time: 0 hr 12 min 16 sec) 
Heartbeat CPU 0 instructions: 210000002 cycles: 146423387 heartbeat IPC: 1.05343 cumulative IPC: 0.906712 (Simulation time: 0 hr 12 min 53 sec) 
Heartbeat CPU 0 instructions: 220000001 cycles: 156232715 heartbeat IPC: 1.01944 cumulative IPC: 0.915145 (Simulation time: 0 hr 13 min 30 sec) 
Heartbeat CPU 0 instructions: 230000003 cycles: 164969645 heartbeat IPC: 1.14457 cumulative IPC: 0.929476 (Simulation time: 0 hr 14 min 5 sec) 
Heartbeat CPU 0 instructions: 240000003 cycles: 174295877 heartbeat IPC: 1.07224 cumulative IPC: 0.938401 (Simulation time: 0 hr 14 min 45 sec) 
Heartbeat CPU 0 instructions: 250000003 cycles: 183812860 heartbeat IPC: 1.05075 cumulative IPC: 0.945138 (Simulation time: 0 hr 15 min 20 sec) 
Heartbeat CPU 0 instructions: 260000000 cycles: 193151779 heartbeat IPC: 1.07079 cumulative IPC: 0.952121 (Simulation time: 0 hr 15 min 56 sec) 
Heartbeat CPU 0 instructions: 270000002 cycles: 203057859 heartbeat IPC: 1.00948 cumulative IPC: 0.955314 (Simulation time: 0 hr 16 min 34 sec) 
Heartbeat CPU 0 instructions: 280000000 cycles: 212395881 heartbeat IPC: 1.07089 cumulative IPC: 0.961076 (Simulation time: 0 hr 17 min 11 sec) 
Heartbeat CPU 0 instructions: 290000000 cycles: 222857545 heartbeat IPC: 0.955871 cumulative IPC: 0.960801 (Simulation time: 0 hr 17 min 47 sec) 
Heartbeat CPU 0 instructions: 300000003 cycles: 232325611 heartbeat IPC: 1.05618 cumulative IPC: 0.965159 (Simulation time: 0 hr 18 min 25 sec) 
Heartbeat CPU 0 instructions: 310000002 cycles: 241766007 heartbeat IPC: 1.05928 cumulative IPC: 0.96926 (Simulation time: 0 hr 19 min 2 sec) 
Heartbeat CPU 0 instructions: 320000000 cycles: 251409355 heartbeat IPC: 1.03698 cumulative IPC: 0.972146 (Simulation time: 0 hr 19 min 39 sec) 
Heartbeat CPU 0 instructions: 330000002 cycles: 260490945 heartbeat IPC: 1.10113 cumulative IPC: 0.977122 (Simulation time: 0 hr 20 min 13 sec) 
Heartbeat CPU 0 instructions: 340000001 cycles: 275353116 heartbeat IPC: 0.672849 cumulative IPC: 0.959052 (Simulation time: 0 hr 21 min 2 sec) 
Heartbeat CPU 0 instructions: 350000002 cycles: 289915413 heartbeat IPC: 0.686705 cumulative IPC: 0.944075 (Simulation time: 0 hr 21 min 56 sec) 
Heartbeat CPU 0 instructions: 360000002 cycles: 305579745 heartbeat IPC: 0.638393 cumulative IPC: 0.927003 (Simulation time: 0 hr 22 min 47 sec) 
Heartbeat CPU 0 instructions: 370000002 cycles: 315282648 heartbeat IPC: 1.03062 cumulative IPC: 0.930467 (Simulation time: 0 hr 23 min 26 sec) 
Heartbeat CPU 0 instructions: 380000004 cycles: 325436099 heartbeat IPC: 0.984887 cumulative IPC: 0.932307 (Simulation time: 0 hr 24 min 2 sec) 
Heartbeat CPU 0 instructions: 390000001 cycles: 335006263 heartbeat IPC: 1.04491 cumulative IPC: 0.935785 (Simulation time: 0 hr 24 min 40 sec) 
Heartbeat CPU 0 instructions: 400000002 cycles: 345150865 heartbeat IPC: 0.985746 cumulative IPC: 0.937368 (Simulation time: 0 hr 25 min 17 sec) 
Heartbeat CPU 0 instructions: 410000001 cycles: 354488653 heartbeat IPC: 1.07092 cumulative IPC: 0.941154 (Simulation time: 0 hr 25 min 55 sec) 
Heartbeat CPU 0 instructions: 420000000 cycles: 363772604 heartbeat IPC: 1.07713 cumulative IPC: 0.944882 (Simulation time: 0 hr 26 min 31 sec) 
Heartbeat CPU 0 instructions: 430000004 cycles: 373267841 heartbeat IPC: 1.05316 cumulative IPC: 0.947835 (Simulation time: 0 hr 27 min 13 sec) 
Heartbeat CPU 0 instructions: 440000001 cycles: 383040580 heartbeat IPC: 1.02325 cumulative IPC: 0.949894 (Simulation time: 0 hr 27 min 48 sec) 
Heartbeat CPU 0 instructions: 450000003 cycles: 392710525 heartbeat IPC: 1.03413 cumulative IPC: 0.95211 (Simulation time: 0 hr 28 min 25 sec) 
Heartbeat CPU 0 instructions: 460000001 cycles: 402165692 heartbeat IPC: 1.05762 cumulative IPC: 0.954756 (Simulation time: 0 hr 29 min 1 sec) 
Heartbeat CPU 0 instructions: 470000002 cycles: 412410616 heartbeat IPC: 0.976093 cumulative IPC: 0.95532 (Simulation time: 0 hr 29 min 38 sec) 
Heartbeat CPU 0 instructions: 480000004 cycles: 422006933 heartbeat IPC: 1.04207 cumulative IPC: 0.957417 (Simulation time: 0 hr 30 min 15 sec) 
Heartbeat CPU 0 instructions: 490000000 cycles: 431725037 heartbeat IPC: 1.02901 cumulative IPC: 0.959128 (Simulation time: 0 hr 30 min 53 sec) 
Heartbeat CPU 0 instructions: 500000002 cycles: 441975596 heartbeat IPC: 0.975557 cumulative IPC: 0.959532 (Simulation time: 0 hr 31 min 29 sec) 
Heartbeat CPU 0 instructions: 510000004 cycles: 452779943 heartbeat IPC: 0.925554 cumulative IPC: 0.958674 (Simulation time: 0 hr 32 min 8 sec) 
Heartbeat CPU 0 instructions: 520000004 cycles: 462218676 heartbeat IPC: 1.05946 cumulative IPC: 0.96085 (Simulation time: 0 hr 32 min 46 sec) 
Heartbeat CPU 0 instructions: 530000003 cycles: 472176724 heartbeat IPC: 1.00421 cumulative IPC: 0.961816 (Simulation time: 0 hr 33 min 25 sec) 
Heartbeat CPU 0 instructions: 540000001 cycles: 482089863 heartbeat IPC: 1.00876 cumulative IPC: 0.962835 (Simulation time: 0 hr 34 min 0 sec) 
Heartbeat CPU 0 instructions: 550000002 cycles: 491340376 heartbeat IPC: 1.08102 cumulative IPC: 0.96518 (Simulation time: 0 hr 34 min 38 sec) 
Heartbeat CPU 0 instructions: 560000001 cycles: 500844948 heartbeat IPC: 1.05213 cumulative IPC: 0.966917 (Simulation time: 0 hr 35 min 13 sec) 
Heartbeat CPU 0 instructions: 570000002 cycles: 512656426 heartbeat IPC: 0.846634 cumulative IPC: 0.964003 (Simulation time: 0 hr 35 min 56 sec) 
Heartbeat CPU 0 instructions: 580000000 cycles: 529533101 heartbeat IPC: 0.592534 cumulative IPC: 0.951574 (Simulation time: 0 hr 36 min 50 sec) 
Heartbeat CPU 0 instructions: 590000000 cycles: 546351524 heartbeat IPC: 0.594586 cumulative IPC: 0.940056 (Simulation time: 0 hr 37 min 45 sec) 
Heartbeat CPU 0 instructions: 600000001 cycles: 555244515 heartbeat IPC: 1.12448 cumulative IPC: 0.94315 (Simulation time: 0 hr 38 min 23 sec) 
Heartbeat CPU 0 instructions: 610000000 cycles: 564615657 heartbeat IPC: 1.06711 cumulative IPC: 0.945303 (Simulation time: 0 hr 39 min 1 sec) 
Heartbeat CPU 0 instructions: 620000001 cycles: 574557749 heartbeat IPC: 1.00582 cumulative IPC: 0.946398 (Simulation time: 0 hr 39 min 37 sec) 
Heartbeat CPU 0 instructions: 630000004 cycles: 583843410 heartbeat IPC: 1.07693 cumulative IPC: 0.948567 (Simulation time: 0 hr 40 min 12 sec) 
Heartbeat CPU 0 instructions: 640000000 cycles: 593371952 heartbeat IPC: 1.04948 cumulative IPC: 0.950259 (Simulation time: 0 hr 40 min 51 sec) 
Heartbeat CPU 0 instructions: 650000000 cycles: 602926483 heartbeat IPC: 1.04662 cumulative IPC: 0.951853 (Simulation time: 0 hr 41 min 28 sec) 
Heartbeat CPU 0 instructions: 660000000 cycles: 611571744 heartbeat IPC: 1.1567 cumulative IPC: 0.954872 (Simulation time: 0 hr 42 min 3 sec) 
Heartbeat CPU 0 instructions: 670000000 cycles: 619945318 heartbeat IPC: 1.19423 cumulative IPC: 0.958242 (Simulation time: 0 hr 42 min 38 sec) 
Heartbeat CPU 0 instructions: 680000000 cycles: 629081846 heartbeat IPC: 1.09451 cumulative IPC: 0.960303 (Simulation time: 0 hr 43 min 15 sec) 
Heartbeat CPU 0 instructions: 690000000 cycles: 638207213 heartbeat IPC: 1.09585 cumulative IPC: 0.962321 (Simulation time: 0 hr 43 min 54 sec) 
Heartbeat CPU 0 instructions: 700000002 cycles: 647656964 heartbeat IPC: 1.05823 cumulative IPC: 0.963776 (Simulation time: 0 hr 44 min 29 sec) 
Heartbeat CPU 0 instructions: 710000001 cycles: 656942899 heartbeat IPC: 1.0769 cumulative IPC: 0.965439 (Simulation time: 0 hr 45 min 5 sec) 
Heartbeat CPU 0 instructions: 720000003 cycles: 666089271 heartbeat IPC: 1.09333 cumulative IPC: 0.967264 (Simulation time: 0 hr 45 min 41 sec) 
Heartbeat CPU 0 instructions: 730000002 cycles: 675340260 heartbeat IPC: 1.08097 cumulative IPC: 0.968881 (Simulation time: 0 hr 46 min 16 sec) 
Heartbeat CPU 0 instructions: 740000000 cycles: 685295504 heartbeat IPC: 1.0045 cumulative IPC: 0.969418 (Simulation time: 0 hr 46 min 53 sec) 
Heartbeat CPU 0 instructions: 750000000 cycles: 694170220 heartbeat IPC: 1.1268 cumulative IPC: 0.971506 (Simulation time: 0 hr 47 min 30 sec) 
Heartbeat CPU 0 instructions: 760000000 cycles: 703557676 heartbeat IPC: 1.06525 cumulative IPC: 0.972803 (Simulation time: 0 hr 48 min 6 sec) 
Heartbeat CPU 0 instructions: 770000001 cycles: 713392950 heartbeat IPC: 1.01675 cumulative IPC: 0.973431 (Simulation time: 0 hr 48 min 44 sec) 
Heartbeat CPU 0 instructions: 780000002 cycles: 723480554 heartbeat IPC: 0.991316 cumulative IPC: 0.973689 (Simulation time: 0 hr 49 min 20 sec) 
Heartbeat CPU 0 instructions: 790000001 cycles: 733652486 heartbeat IPC: 0.983097 cumulative IPC: 0.973824 (Simulation time: 0 hr 49 min 58 sec) 
Heartbeat CPU 0 instructions: 800000002 cycles: 742992081 heartbeat IPC: 1.07071 cumulative IPC: 0.975085 (Simulation time: 0 hr 50 min 36 sec) 
Heartbeat CPU 0 instructions: 810000000 cycles: 752168688 heartbeat IPC: 1.08973 cumulative IPC: 0.976532 (Simulation time: 0 hr 51 min 12 sec) 
Heartbeat CPU 0 instructions: 820000001 cycles: 761281209 heartbeat IPC: 1.09739 cumulative IPC: 0.978028 (Simulation time: 0 hr 51 min 49 sec) 
Heartbeat CPU 0 instructions: 830000000 cycles: 771173859 heartbeat IPC: 1.01085 cumulative IPC: 0.978463 (Simulation time: 0 hr 52 min 24 sec) 
Heartbeat CPU 0 instructions: 840000004 cycles: 780150734 heartbeat IPC: 1.11397 cumulative IPC: 0.980074 (Simulation time: 0 hr 53 min 0 sec) 
Heartbeat CPU 0 instructions: 850000003 cycles: 788725026 heartbeat IPC: 1.16628 cumulative IPC: 0.982165 (Simulation time: 0 hr 53 min 34 sec) 
Heartbeat CPU 0 instructions: 860000002 cycles: 799051705 heartbeat IPC: 0.968365 cumulative IPC: 0.981981 (Simulation time: 0 hr 54 min 11 sec) 
Heartbeat CPU 0 instructions: 870000000 cycles: 812631453 heartbeat IPC: 0.736391 cumulative IPC: 0.977746 (Simulation time: 0 hr 54 min 57 sec) 
Heartbeat CPU 0 instructions: 880000002 cycles: 826829181 heartbeat IPC: 0.704338 cumulative IPC: 0.972904 (Simulation time: 0 hr 55 min 51 sec) 
Heartbeat CPU 0 instructions: 890000004 cycles: 845615887 heartbeat IPC: 0.532291 cumulative IPC: 0.962816 (Simulation time: 0 hr 56 min 48 sec) 
Heartbeat CPU 0 instructions: 900000001 cycles: 858087639 heartbeat IPC: 0.801812 cumulative IPC: 0.960405 (Simulation time: 0 hr 57 min 32 sec) 
Heartbeat CPU 0 instructions: 910000002 cycles: 870134769 heartbeat IPC: 0.830073 cumulative IPC: 0.958547 (Simulation time: 0 hr 58 min 16 sec) 
Heartbeat CPU 0 instructions: 920000002 cycles: 887285880 heartbeat IPC: 0.583053 cumulative IPC: 0.951078 (Simulation time: 0 hr 59 min 9 sec) 
Heartbeat CPU 0 instructions: 930000001 cycles: 902980324 heartbeat IPC: 0.637168 cumulative IPC: 0.945466 (Simulation time: 1 hr 0 min 4 sec) 
Heartbeat CPU 0 instructions: 940000000 cycles: 918781442 heartbeat IPC: 0.632867 cumulative IPC: 0.939938 (Simulation time: 1 hr 0 min 57 sec) 
Heartbeat CPU 0 instructions: 950000003 cycles: 932483041 heartbeat IPC: 0.729842 cumulative IPC: 0.936766 (Simulation time: 1 hr 1 min 44 sec) 
Heartbeat CPU 0 instructions: 960000000 cycles: 944196731 heartbeat IPC: 0.853702 cumulative IPC: 0.935707 (Simulation time: 1 hr 2 min 26 sec) 
Heartbeat CPU 0 instructions: 970000004 cycles: 958661036 heartbeat IPC: 0.691357 cumulative IPC: 0.931921 (Simulation time: 1 hr 3 min 14 sec) 
Heartbeat CPU 0 instructions: 980000000 cycles: 974639681 heartbeat IPC: 0.625835 cumulative IPC: 0.926771 (Simulation time: 1 hr 4 min 7 sec) 
Heartbeat CPU 0 instructions: 990000002 cycles: 990613300 heartbeat IPC: 0.626032 cumulative IPC: 0.921795 (Simulation time: 1 hr 5 min 0 sec) 
Heartbeat CPU 0 instructions: 1000000000 cycles: 1004234657 heartbeat IPC: 0.734141 cumulative IPC: 0.919185 (Simulation time: 1 hr 5 min 46 sec) 
Heartbeat CPU 0 instructions: 1010000001 cycles: 1014655489 heartbeat IPC: 0.959616 cumulative IPC: 0.91961 (Simulation time: 1 hr 6 min 26 sec) 
Heartbeat CPU 0 instructions: 1020000002 cycles: 1025256145 heartbeat IPC: 0.943338 cumulative IPC: 0.919862 (Simulation time: 1 hr 7 min 6 sec) 
Heartbeat CPU 0 instructions: 1030000000 cycles: 1036016658 heartbeat IPC: 0.929324 cumulative IPC: 0.919963 (Simulation time: 1 hr 7 min 45 sec) 
Heartbeat CPU 0 instructions: 1040000003 cycles: 1046734939 heartbeat IPC: 0.932986 cumulative IPC: 0.920099 (Simulation time: 1 hr 8 min 25 sec) 
Heartbeat CPU 0 instructions: 1050000002 cycles: 1058395235 heartbeat IPC: 0.857611 cumulative IPC: 0.919394 (Simulation time: 1 hr 9 min 7 sec) 
Heartbeat CPU 0 instructions: 1060000001 cycles: 1075338916 heartbeat IPC: 0.59019 cumulative IPC: 0.914083 (Simulation time: 1 hr 10 min 3 sec) 
Heartbeat CPU 0 instructions: 1070000003 cycles: 1090620030 heartbeat IPC: 0.654403 cumulative IPC: 0.910359 (Simulation time: 1 hr 10 min 54 sec) 
Heartbeat CPU 0 instructions: 1080000001 cycles: 1103675215 heartbeat IPC: 0.765979 cumulative IPC: 0.908611 (Simulation time: 1 hr 11 min 39 sec) 
Heartbeat CPU 0 instructions: 1090000001 cycles: 1114409865 heartbeat IPC: 0.931563 cumulative IPC: 0.908837 (Simulation time: 1 hr 12 min 20 sec) 
Heartbeat CPU 0 instructions: 1100000000 cycles: 1125433140 heartbeat IPC: 0.907171 cumulative IPC: 0.908821 (Simulation time: 1 hr 12 min 59 sec) 
Heartbeat CPU 0 instructions: 1110000004 cycles: 1136256526 heartbeat IPC: 0.923926 cumulative IPC: 0.908968 (Simulation time: 1 hr 13 min 39 sec) 
Heartbeat CPU 0 instructions: 1120000000 cycles: 1152943794 heartbeat IPC: 0.599259 cumulative IPC: 0.904385 (Simulation time: 1 hr 14 min 33 sec) 
Heartbeat CPU 0 instructions: 1130000000 cycles: 1168435860 heartbeat IPC: 0.645492 cumulative IPC: 0.900877 (Simulation time: 1 hr 15 min 26 sec) 
Heartbeat CPU 0 instructions: 1140000004 cycles: 1183922781 heartbeat IPC: 0.645706 cumulative IPC: 0.897467 (Simulation time: 1 hr 16 min 17 sec) 
Heartbeat CPU 0 instructions: 1150000000 cycles: 1194910941 heartbeat IPC: 0.91007 cumulative IPC: 0.897585 (Simulation time: 1 hr 16 min 58 sec) 
Heartbeat CPU 0 instructions: 1160000000 cycles: 1206263561 heartbeat IPC: 0.880854 cumulative IPC: 0.897425 (Simulation time: 1 hr 17 min 39 sec) 
Heartbeat CPU 0 instructions: 1170000000 cycles: 1219876493 heartbeat IPC: 0.734596 cumulative IPC: 0.895569 (Simulation time: 1 hr 18 min 25 sec) 
Heartbeat CPU 0 instructions: 1180000001 cycles: 1236270961 heartbeat IPC: 0.609962 cumulative IPC: 0.891703 (Simulation time: 1 hr 19 min 19 sec) 
Heartbeat CPU 0 instructions: 1190000000 cycles: 1253762322 heartbeat IPC: 0.571711 cumulative IPC: 0.887148 (Simulation time: 1 hr 20 min 15 sec) 
Heartbeat CPU 0 instructions: 1200000002 cycles: 1263930926 heartbeat IPC: 0.983419 cumulative IPC: 0.887938 (Simulation time: 1 hr 20 min 53 sec) 
Heartbeat CPU 0 instructions: 1210000003 cycles: 1273920604 heartbeat IPC: 1.00103 cumulative IPC: 0.888843 (Simulation time: 1 hr 21 min 32 sec) 
Heartbeat CPU 0 instructions: 1220000001 cycles: 1284109194 heartbeat IPC: 0.98149 cumulative IPC: 0.889593 (Simulation time: 1 hr 22 min 10 sec) 
Heartbeat CPU 0 instructions: 1230000004 cycles: 1294633756 heartbeat IPC: 0.950159 cumulative IPC: 0.890095 (Simulation time: 1 hr 22 min 49 sec) 
Heartbeat CPU 0 instructions: 1240000000 cycles: 1306553715 heartbeat IPC: 0.838929 cumulative IPC: 0.889619 (Simulation time: 1 hr 23 min 30 sec) 
Heartbeat CPU 0 instructions: 1250000004 cycles: 1322774722 heartbeat IPC: 0.616485 cumulative IPC: 0.886205 (Simulation time: 1 hr 24 min 25 sec) 
Heartbeat CPU 0 instructions: 1260000004 cycles: 1339726942 heartbeat IPC: 0.589893 cumulative IPC: 0.882384 (Simulation time: 1 hr 25 min 19 sec) 
Heartbeat CPU 0 instructions: 1270000000 cycles: 1350692166 heartbeat IPC: 0.911974 cumulative IPC: 0.882628 (Simulation time: 1 hr 25 min 59 sec) 
Heartbeat CPU 0 instructions: 1280000000 cycles: 1361556119 heartbeat IPC: 0.920475 cumulative IPC: 0.882936 (Simulation time: 1 hr 26 min 39 sec) 
Heartbeat CPU 0 instructions: 1290000003 cycles: 1372758620 heartbeat IPC: 0.892658 cumulative IPC: 0.883017 (Simulation time: 1 hr 27 min 19 sec) 
Heartbeat CPU 0 instructions: 1300000001 cycles: 1387656831 heartbeat IPC: 0.671221 cumulative IPC: 0.880701 (Simulation time: 1 hr 28 min 8 sec) 
Heartbeat CPU 0 instructions: 1310000000 cycles: 1402913106 heartbeat IPC: 0.655468 cumulative IPC: 0.878207 (Simulation time: 1 hr 29 min 1 sec) 
Heartbeat CPU 0 instructions: 1320000002 cycles: 1419714859 heartbeat IPC: 0.595176 cumulative IPC: 0.874797 (Simulation time: 1 hr 29 min 55 sec) 
Heartbeat CPU 0 instructions: 1330000000 cycles: 1430960202 heartbeat IPC: 0.889257 cumulative IPC: 0.874913 (Simulation time: 1 hr 30 min 36 sec) 
Heartbeat CPU 0 instructions: 1340000004 cycles: 1442356127 heartbeat IPC: 0.877507 cumulative IPC: 0.874934 (Simulation time: 1 hr 31 min 17 sec) 
Heartbeat CPU 0 instructions: 1350000000 cycles: 1455848858 heartbeat IPC: 0.74114 cumulative IPC: 0.873672 (Simulation time: 1 hr 32 min 3 sec) 
Heartbeat CPU 0 instructions: 1360000001 cycles: 1472899894 heartbeat IPC: 0.586475 cumulative IPC: 0.87029 (Simulation time: 1 hr 32 min 58 sec) 
Heartbeat CPU 0 instructions: 1370000003 cycles: 1489907343 heartbeat IPC: 0.587978 cumulative IPC: 0.867012 (Simulation time: 1 hr 33 min 53 sec) 
Heartbeat CPU 0 instructions: 1380000004 cycles: 1501358173 heartbeat IPC: 0.873299 cumulative IPC: 0.86706 (Simulation time: 1 hr 34 min 34 sec) 
Heartbeat CPU 0 instructions: 1390000002 cycles: 1513863065 heartbeat IPC: 0.799687 cumulative IPC: 0.866495 (Simulation time: 1 hr 35 min 17 sec) 
Heartbeat CPU 0 instructions: 1400000003 cycles: 1531240541 heartbeat IPC: 0.575458 cumulative IPC: 0.863137 (Simulation time: 1 hr 36 min 13 sec) 
Heartbeat CPU 0 instructions: 1410000000 cycles: 1547392534 heartbeat IPC: 0.619118 cumulative IPC: 0.860548 (Simulation time: 1 hr 37 min 8 sec) 
Heartbeat CPU 0 instructions: 1420000002 cycles: 1562727173 heartbeat IPC: 0.652119 cumulative IPC: 0.858469 (Simulation time: 1 hr 38 min 0 sec) 
Heartbeat CPU 0 instructions: 1430000004 cycles: 1577918831 heartbeat IPC: 0.658256 cumulative IPC: 0.85651 (Simulation time: 1 hr 38 min 52 sec) 
Heartbeat CPU 0 instructions: 1440000002 cycles: 1592435752 heartbeat IPC: 0.688851 cumulative IPC: 0.854957 (Simulation time: 1 hr 39 min 43 sec) 
Heartbeat CPU 0 instructions: 1450000003 cycles: 1609492980 heartbeat IPC: 0.586262 cumulative IPC: 0.852064 (Simulation time: 1 hr 40 min 38 sec) 
Heartbeat CPU 0 instructions: 1460000001 cycles: 1624827810 heartbeat IPC: 0.65211 cumulative IPC: 0.850148 (Simulation time: 1 hr 41 min 30 sec) 
Heartbeat CPU 0 instructions: 1470000002 cycles: 1640027964 heartbeat IPC: 0.657888 cumulative IPC: 0.848338 (Simulation time: 1 hr 42 min 22 sec) 
Heartbeat CPU 0 instructions: 1480000002 cycles: 1655067160 heartbeat IPC: 0.664929 cumulative IPC: 0.846646 (Simulation time: 1 hr 43 min 13 sec) 
Heartbeat CPU 0 instructions: 1490000003 cycles: 1665302708 heartbeat IPC: 0.976987 cumulative IPC: 0.847459 (Simulation time: 1 hr 43 min 55 sec) 
Heartbeat CPU 0 instructions: 1500000002 cycles: 1675155738 heartbeat IPC: 1.01492 cumulative IPC: 0.848459 (Simulation time: 1 hr 44 min 35 sec) 
Heartbeat CPU 0 instructions: 1510000000 cycles: 1685314396 heartbeat IPC: 0.984382 cumulative IPC: 0.849291 (Simulation time: 1 hr 45 min 11 sec) 
Heartbeat CPU 0 instructions: 1520000004 cycles: 1695560399 heartbeat IPC: 0.975991 cumulative IPC: 0.850068 (Simulation time: 1 hr 45 min 48 sec) 
Heartbeat CPU 0 instructions: 1530000001 cycles: 1704879526 heartbeat IPC: 1.07306 cumulative IPC: 0.851305 (Simulation time: 1 hr 46 min 27 sec) 
Heartbeat CPU 0 instructions: 1540000000 cycles: 1715425148 heartbeat IPC: 0.948261 cumulative IPC: 0.85191 (Simulation time: 1 hr 47 min 4 sec) 
Heartbeat CPU 0 instructions: 1550000000 cycles: 1724997327 heartbeat IPC: 1.04469 cumulative IPC: 0.852996 (Simulation time: 1 hr 47 min 44 sec) 
Heartbeat CPU 0 instructions: 1560000000 cycles: 1734391203 heartbeat IPC: 1.06452 cumulative IPC: 0.854158 (Simulation time: 1 hr 48 min 19 sec) 
Heartbeat CPU 0 instructions: 1570000000 cycles: 1743789761 heartbeat IPC: 1.06399 cumulative IPC: 0.855306 (Simulation time: 1 hr 48 min 55 sec) 
Heartbeat CPU 0 instructions: 1580000000 cycles: 1753173856 heartbeat IPC: 1.06563 cumulative IPC: 0.856448 (Simulation time: 1 hr 49 min 35 sec) 
Heartbeat CPU 0 instructions: 1590000001 cycles: 1762839960 heartbeat IPC: 1.03454 cumulative IPC: 0.857438 (Simulation time: 1 hr 50 min 16 sec) 
Heartbeat CPU 0 instructions: 1600000000 cycles: 1773033281 heartbeat IPC: 0.981034 cumulative IPC: 0.858159 (Simulation time: 1 hr 50 min 52 sec) 
Finished CPU 0 instructions: 1500000000 cycles: 1747927396 cumulative IPC: 0.858159 (Simulation time: 1 hr 50 min 52 sec) 

ChampSim completed all CPUs

Region of Interest Statistics

CPU 0 cumulative IPC: 0.858159 instructions: 1500000000 cycles: 1747927396
cpu0_DTLB TOTAL     ACCESS:  342023129  HIT:  339028985  MISS:    2994144
cpu0_DTLB LOAD      ACCESS:  227050862  HIT:  224472523  MISS:    2578339
cpu0_DTLB RFO       ACCESS:  114972267  HIT:  114556462  MISS:     415805
cpu0_DTLB PREFETCH  ACCESS:          0  HIT:          0  MISS:          0
cpu0_DTLB WRITEBACK ACCESS:          0  HIT:          0  MISS:          0
cpu0_DTLB TRANSLATION ACCESS:          0  HIT:          0  MISS:          0
cpu0_DTLB PREFETCH  REQUESTED:          0  ISSUED:          0  USEFUL:          0  USELESS:          0
cpu0_DTLB AVERAGE MISS LATENCY: 9.40315 cycles
cpu0_ITLB TOTAL     ACCESS:  135188224  HIT:  135043005  MISS:     145219
cpu0_ITLB LOAD      ACCESS:  135188224  HIT:  135043005  MISS:     145219
cpu0_ITLB RFO       ACCESS:          0  HIT:          0  MISS:          0
cpu0_ITLB PREFETCH  ACCESS:          0  HIT:          0  MISS:          0
cpu0_ITLB WRITEBACK ACCESS:          0  HIT:          0  MISS:          0
cpu0_ITLB TRANSLATION ACCESS:          0  HIT:          0  MISS:          0
cpu0_ITLB PREFETCH  REQUESTED:          0  ISSUED:          0  USEFUL:          0  USELESS:          0
cpu0_ITLB AVERAGE MISS LATENCY: 9.36066 cycles
cpu0_L1I TOTAL     ACCESS:   84500595  HIT:   81078136  MISS:    3422459
cpu0_L1I LOAD      ACCESS:   84500595  HIT:   81078136  MISS:    3422459
cpu0_L1I RFO       ACCESS:          0  HIT:          0  MISS:          0
cpu0_L1I PREFETCH  ACCESS:          0  HIT:          0  MISS:          0
cpu0_L1I WRITEBACK ACCESS:          0  HIT:          0  MISS:          0
cpu0_L1I TRANSLATION ACCESS:          0  HIT:          0  MISS:          0
cpu0_L1I PREFETCH  REQUESTED:          0  ISSUED:          0  USEFUL:          0  USELESS:          0
cpu0_L1I AVERAGE MISS LATENCY: 14.3343 cycles
cpu0_STLB TOTAL     ACCESS:    3139363  HIT:    3034821  MISS:     104542
cpu0_STLB LOAD      ACCESS:    2723558  HIT:    2629412  MISS:      94146
cpu0_STLB RFO       ACCESS:     415805  HIT:     405409  MISS:      10396
cpu0_STLB PREFETCH  ACCESS:          0  HIT:          0  MISS:          0
cpu0_STLB WRITEBACK ACCESS:          0  HIT:          0  MISS:          0
cpu0_STLB TRANSLATION ACCESS:          0  HIT:          0  MISS:          0
cpu0_STLB PREFETCH  REQUESTED:          0  ISSUED:          0  USEFUL:          0  USELESS:          0
cpu0_STLB AVERAGE MISS LATENCY: 11.8993 cycles
cpu0_L1D TOTAL     ACCESS:  431300598  HIT:  427203924  MISS:    4096674
cpu0_L1D LOAD      ACCESS:  222505019  HIT:  218752492  MISS:    3752527
cpu0_L1D RFO       ACCESS:  208691340  HIT:  208357546  MISS:     333794
cpu0_L1D PREFETCH  ACCESS:          0  HIT:          0  MISS:          0
cpu0_L1D WRITEBACK ACCESS:          0  HIT:          0  MISS:          0
cpu0_L1D TRANSLATION ACCESS:     104239  HIT:      93886  MISS:      10353
cpu0_L1D PREFETCH  REQUESTED:          0  ISSUED:          0  USEFUL:          0  USELESS:          0
cpu0_L1D AVERAGE MISS LATENCY: 59.7698 cycles
cpu0_L2C TOTAL     ACCESS:    8507261  HIT:    6979744  MISS:    1527517
cpu0_L2C LOAD      ACCESS:    7174915  HIT:    5754670  MISS:    1420245
cpu0_L2C RFO       ACCESS:     333778  HIT:     230963  MISS:     102815
cpu0_L2C PREFETCH  ACCESS:          0  HIT:          0  MISS:          0
cpu0_L2C WRITEBACK ACCESS:     988215  HIT:     984313  MISS:       3902
cpu0_L2C TRANSLATION ACCESS:      10353  HIT:       9798  MISS:        555
cpu0_L2C PREFETCH  REQUESTED:          0  ISSUED:          0  USEFUL:          0  USELESS:          0
cpu0_L2C AVERAGE MISS LATENCY: 138.203 cycles
LLC TOTAL     ACCESS:    1813661  HIT:     615801  MISS:    1197860
LLC LOAD      ACCESS:    1420244  HIT:     293560  MISS:    1126684
LLC RFO       ACCESS:     102814  HIT:      35636  MISS:      67178
LLC PREFETCH  ACCESS:          0  HIT:          0  MISS:          0
LLC WRITEBACK ACCESS:     290048  HIT:     286193  MISS:       3855
LLC TRANSLATION ACCESS:        555  HIT:        412  MISS:        143
LLC PREFETCH  REQUESTED:          0  ISSUED:          0  USEFUL:          0  USELESS:          0
LLC AVERAGE MISS LATENCY: 149.526 cycles
~~~~~~~~~~Reuse Distance Profiler output~~~~~~~~~~
0	96258912	5845568
1	33931760	19159584
2	23294880	11743248
3	14955248	7001280
4	9195264	6084128
5	10374800	6327216
6	13898304	8951296
7	9386592	7014256
8	8833808	4676656
9	7902848	3902976
10	6645760	3569104
11	7255776	3823104
12	9841024	6978768
13	7952016	5020528
14	5114816	3671792
15	10330976	6911968
16	4896384	3833472
17	7613184	5872976
18	3346400	2511216
19	2696096	2274464
20	3489936	3041040
21	3516016	3022784
22	3656032	2372480
23	2934128	1492320
24	3665248	2575680
25	4022640	3502944
26	2034992	1683024
27	3216912	2492096
28	1612944	1059376
29	1607744	1128576
30	2836176	2529696
31	3400208	2887552
32	944672	572656
33	2165312	1295200
34	1324640	918672
35	1851376	939360
36	1459584	510560
37	995488	473968
38	1410800	859024
39	965552	417360
40	1812816	567232
41	2017808	1543488
42	1258128	470704
43	1031184	349808
44	1692384	585104
45	1349104	827632
46	1406192	950512
47	1314896	720800
48	1440224	497984
49	1498720	823280
50	898896	491904
51	887296	375072
52	1231072	505264
53	6355888	4138384
54	1929840	1210544
55	4686656	3285984
56	1023168	506496
57	2809904	1882400
58	1062688	630768
59	2171552	1250336
60	611856	325840
61	1564752	997920
62	900272	482912
63	1120816	795232
64	2022624	1310656
66	1066656	612464
68	1038160	630768
70	1467392	706656
72	1207264	603360
74	744976	454688
76	1013344	793056
78	1002288	721248
80	1061840	772720
82	776864	447648
84	840320	505040
86	647104	351200
88	824144	601648
90	856208	620240
92	832608	587872
94	1027440	575808
96	670304	384848
98	563536	423296
100	464512	348160
102	747504	584320
104	1119680	676496
106	1452304	854320
108	4202096	2736176
110	1718144	1187072
112	528960	349440
114	465280	346144
116	749472	520336
118	704448	404752
120	1676288	1054368
122	1093408	679744
124	1104944	702000
126	567040	364160
128	888032	556480
132	870800	514096
136	1027392	632192
140	914608	604176
144	695712	473616
148	979792	631152
152	901440	601184
156	632816	469328
160	448928	345840
164	394032	295712
168	518512	398144
172	398848	291968
176	413712	297200
180	562512	380384
184	562928	385616
188	542768	371632
192	607312	393360
196	501280	363552
200	747712	495520
204	449216	295488
208	411136	313792
212	474976	343504
216	622368	439248
220	408704	294144
224	494528	301744
228	287488	187264
232	401040	266576
236	300048	212032
240	554640	311072
244	240960	159936
248	254112	162176
252	328016	229056
256	542816	405856
264	400528	300624
272	357152	238832
280	347136	234736
288	387392	250032
296	341824	252928
304	293248	211376
312	223216	172080
320	229600	169008
328	220128	176688
336	238416	170080
344	273040	198464
352	242720	174032
360	197872	148784
368	177888	139952
376	172960	132528
384	149600	115024
392	136736	104176
400	164416	123520
408	130720	98176
416	104672	76064
424	113584	84368
432	119424	93040
440	123024	97520
448	133152	104000
456	120480	93568
464	115808	86912
472	107056	85904
480	108032	86064
488	103920	85744
496	100176	81568
504	92096	74320
512	212896	169888
528	215728	177856
544	220352	186064
560	176736	140256
576	145328	111296
592	115488	92112
608	120464	93984
624	114256	88000
640	101552	78752
656	89072	66032
672	97328	69056
688	99952	73232
704	97904	76800
720	91792	67248
736	86592	64272
752	82784	59520
768	83104	61920
784	80032	57632
800	74240	57344
816	68032	52304
832	66336	50656
848	63616	48720
864	67248	52128
880	68032	55008
896	69728	54032
912	61936	48256
928	58064	45712
944	61200	47104
960	72848	55952
976	74896	58240
992	77632	60048
1008	73216	58128
1024	138720	112192
1056	126720	103328
1088	116544	94176
1120	109744	90192
1152	86112	69456
1184	89248	71664
1216	100016	78416
1248	89936	71168
1280	94080	79472
1312	91360	71472
1344	86912	67152
1376	77184	62480
1408	84720	67920
1440	114800	91936
1472	104560	84320
1504	92736	74144
1536	98720	81024
1568	85360	71392
1600	82832	68560
1632	111776	95360
1664	78368	63520
1696	55792	42880
1728	59872	45664
1760	53360	40656
1792	56384	42192
1824	54944	41168
1856	58880	45840
1888	52640	43088
1920	53600	45008
1952	52992	42560
1984	63632	50512
2016	49712	40128
2048	91904	70880
2112	89808	68528
2176	86496	68512
2240	85184	66624
2304	78480	62576
2368	73808	57936
2432	85312	66800
2496	74912	56880
2560	80160	62480
2624	74096	60640
2688	80688	64512
2752	80048	65024
2816	100608	84704
2880	94048	76720
2944	69456	58176
3008	59024	47968
3072	59376	48400
3136	51664	41872
3200	52992	44704
3264	55024	45232
3328	52544	43568
3392	54480	46576
3456	62928	54192
3520	83408	71952
3584	61552	53600
3648	53520	46368
3712	55856	47856
3776	64160	55840
3840	48064	39792
3904	48640	40448
3968	49168	40336
4032	47024	38400
4096	79056	66224
4224	73376	61424
4352	64336	52336
4480	69664	57968
4608	66560	55376
4736	65760	53728
4864	55808	46416
4992	56880	46800
5120	52416	43104
5248	57888	47152
5376	52080	43504
5504	52880	44928
5632	56432	50432
5760	60192	54032
5888	67072	59904
6016	53680	46896
6144	60000	52656
6272	49360	42928
6400	40048	33664
6528	44448	38464
6656	50144	43008
6784	46624	40512
6912	41088	35360
7040	42784	37056
7168	47680	42704
7296	47392	41984
7424	35296	30704
7552	32160	27872
7680	39472	34016
7808	41168	35856
7936	41760	35360
8064	45872	39856
8192	81936	71936
8448	90240	79792
8704	77600	67648
8960	84928	76064
9216	77168	70096
9472	54160	48128
9728	68768	62416
9984	61856	56208
10240	59616	53360
10496	65488	58480
10752	53392	47280
11008	43664	38896
11264	45680	39808
11520	40336	35424
11776	38976	34448
12032	39536	34768
12288	36720	32256
12544	38784	34240
12800	50304	45296
13056	49184	44800
13312	42560	37840
13568	38752	34128
13824	42896	38592
14080	39248	34736
14336	44944	41616
14592	35152	31040
14848	40784	36240
15104	44768	40352
15360	43200	39232
15616	36224	32608
15872	35568	32544
16128	34160	31040
16384	89312	82496
16896	78384	71872
17408	77168	71120
17920	60416	55056
18432	63648	57744
18944	68912	63104
19456	71904	66384
19968	72080	67104
20480	66496	61696
20992	55312	50624
21504	50176	46400
22016	54000	49200
22528	49264	44624
23040	46640	42768
23552	41088	37264
24064	29792	26880
24576	32496	29568
25088	31024	28576
25600	28576	25920
26112	39520	35536
26624	44608	39664
27136	30320	27568
27648	25984	23616
28160	23648	21952
28672	18608	17008
29184	23040	20720
29696	26400	24160
30208	22736	20448
30720	26848	24544
31232	28096	25456
31744	34960	32864
32256	23792	22320
32768	39152	36432
33792	31040	28496
34816	26992	24688
35840	29312	26880
36864	56320	48640
37888	40544	36432
38912	22880	20560
39936	24720	21584
40960	18560	16848
41984	18832	16848
43008	19856	18144
44032	16800	14912
45056	18560	16752
46080	19856	18304
47104	17744	16016
48128	26640	24496
49152	20880	19104
50176	21296	19312
51200	26336	24464
52224	44576	42560
53248	21600	19936
54272	19872	18464
55296	21344	19744
56320	18208	16512
57344	15200	13664
58368	15440	13472
59392	13696	12272
60416	17952	16592
61440	14464	13264
62464	12848	11696
63488	10096	9232
64512	11520	10480
65536	25680	23424
67584	31632	29744
69632	18464	16928
71680	18544	17248
73728	25312	23488
75776	22448	20656
77824	20944	18576
79872	20560	18624
81920	19536	17248
83968	16560	14640
86016	20800	19184
88064	20064	18240
90112	30384	28320
92160	12688	11408
94208	14368	13200
96256	18448	16816
98304	13024	11488
100352	13696	12496
102400	13312	12000
104448	13168	11680
106496	12256	11056
108544	10864	10000
110592	9536	8672
112640	10144	9216
114688	8352	7552
116736	11088	10304
118784	7616	7072
120832	7984	7296
122880	7024	6448
124928	8336	7520
126976	8848	8112
129024	7920	7296
131072	18288	16864
135168	22080	20480
139264	15680	14224
143360	11760	10496
147456	9136	8256
151552	10320	9584
155648	9296	8384
159744	9392	8656
163840	16416	15328
167936	22096	20480
172032	10944	9792
176128	12528	11408
180224	12560	11248
184320	8816	7776
188416	9584	8736
192512	8512	7648
196608	12656	11504
200704	10608	9552
204800	8288	7584
208896	7312	6528
212992	7712	7024
217088	7856	7152
221184	8544	7648
225280	7296	6368
229376	7296	6480
233472	6064	5152
237568	7344	6640
241664	10928	9920
245760	9040	8064
249856	6640	6160
253952	5184	4640
258048	5312	4912
262144	10352	9440
270336	10400	9280
278528	10896	9616
286720	8704	7728
294912	11648	10096
303104	9184	8336
311296	9376	8240
319488	6672	5888
327680	7520	6640
335872	6624	5872
344064	7520	6720
352256	6352	5504
360448	7936	7120
368640	5504	5008
376832	5952	5184
385024	4464	4144
393216	6016	5120
401408	3936	3568
409600	4384	4096
417792	5232	4800
425984	5600	4896
434176	4896	4464
442368	4384	3952
450560	3440	2848
458752	4416	3856
466944	4368	3968
475136	3680	3376
483328	2496	2192
491520	3408	2896
499712	4368	3936
507904	4304	4048
516096	3008	2656
524288	6720	5536
540672	5728	5088
557056	5856	5104
573440	6496	5808
589824	4224	3776
606208	6400	5840
622592	3792	3488
638976	3568	3072
655360	3328	2928
671744	3424	3104
688128	2816	2448
704512	4336	3888
720896	3552	3056
737280	2672	2368
753664	3952	3520
770048	3168	2688
786432	3008	2512
802816	3200	2896
819200	3088	2784
835584	2992	2496
851968	3584	3120
868352	3232	2688
884736	2912	2592
901120	1696	1280
917504	2656	2272
933888	3328	2848
950272	2016	1728
966656	4752	4336
983040	1984	1744
999424	2096	1840
1015808	1776	1584
1032192	2480	2144
1048576	4608	4032
1081344	3104	2704
1114112	5104	4528
1146880	4688	4240
1179648	4016	3520
1212416	3712	3328
1245184	5360	4352
1277952	3952	3424
1310720	4416	3760
1343488	5152	3744
1376256	4880	4096
1409024	2960	2512
1441792	3392	2928
1474560	2368	1840
1507328	3568	2960
1540096	3104	2752
1572864	4672	3952
1605632	5696	5056
1638400	4448	4016
1671168	2896	2496
1703936	3424	3120
1736704	2480	1904
1769472	1952	1472
1802240	2800	2256
1835008	2768	2432
1867776	2960	2304
1900544	2848	2368
1933312	3216	2832
1966080	2576	2128
1998848	2528	2368
2031616	1856	1648
2064384	2080	1888
2097152	3200	2848
2162688	3680	3296
2228224	3104	2848
2293760	4848	4432
2359296	3360	3024
2424832	2032	1888
2490368	2160	1888
2555904	1488	1328
2621440	2064	1776
2686976	1472	1312
2752512	1792	1584
2818048	2672	2448
2883584	2800	2448
2949120	2416	2096
3014656	1600	1392
3080192	2144	2064
3145728	1872	1712
3211264	1136	816
3276800	1856	1456
3342336	1936	1600
3407872	2656	2448
3473408	1568	1408
3538944	1680	1376
3604480	1184	1072
3670016	1248	1088
3735552	1856	1680
3801088	1088	912
3866624	1808	1744
3932160	624	496
3997696	752	688
4063232	1184	1088
4128768	976	848
4194304	1392	1024
4325376	1152	1040
4456448	656	528
4587520	1168	1024
4718592	592	400
4849664	544	480
4980736	1552	1344
5111808	1040	912
5242880	1024	960
5373952	592	560
5505024	1008	944
5636096	1120	1056
5767168	832	784
5898240	1040	912
6029312	960	800
6160384	416	384
6291456	1216	1056
6422528	848	768
6553600	592	496
6684672	1328	1184
6815744	640	608
6946816	944	880
7077888	336	304
7208960	1040	928
7340032	560	464
7471104	512	464
7602176	960	864
7733248	1296	1184
7864320	960	784
7995392	864	816
8126464	912	768
8257536	1680	1152
8388608	1440	1200
8650752	2240	1952
8912896	1968	1744
9175040	1488	1360
9437184	3360	2928
9699328	2448	2208
9961472	4160	3792
10223616	3616	3040
10485760	3072	2864
10747904	2688	2416
11010048	4288	4016
11272192	5232	4576
11534336	9040	8384
11796480	2832	2512
12058624	3424	3200
12320768	4496	4016
12582912	4608	4320
12845056	8416	8096
13107200	5744	5136
13369344	6224	5936
13631488	4464	4064
13893632	5440	5152
14155776	6480	6032
14417920	11536	10880
14680064	8288	7648
14942208	17872	16160
15204352	15648	15072
15466496	31360	30464
15728640	19792	19056
15990784	20080	18688
16252928	44656	42480
16515072	25568	23952
16777216	84448	81392
17301504	75104	72784
17825792	24096	23152
18350080	43168	41344
18874368	50544	49328
19398656	15440	14272
19922944	28144	27568
20447232	21616	20864
20971520	6320	5728
21495808	8432	8112
22020096	5936	5616
22544384	8400	8208
23068672	26000	25456
23592960	12880	12608
24117248	8544	8032
24641536	736	656
25165824	13744	13248
25690112	3088	3008
26214400	112	96
26738688	2176	2160
27262976	208	128
27787264	464	432
28311552	912	736
28835840	560	528
29360128	336	320
29884416	112	48
30408704	256	256
30932992	432	416
31457280	144	48
31981568	480	256
32505856	480	384
33030144	1184	944
33554432	576	400
34603008	816	576
35651584	1360	1088
36700160	3440	3056
37748736	2800	2400
38797312	2800	2352
39845888	5856	4736
40894464	6000	5344
41943040	5408	4896
42991616	17792	16896
44040192	11136	10272
45088768	37744	36336
46137344	50672	48896
47185920	2336	2208
48234496	2688	2544
49283072	1616	1488
50331648	2768	2624
51380224	2208	2048
52428800	4080	3696
53477376	2976	2720
54525952	2416	2288
55574528	3040	2880
56623104	4736	4592
57671680	2080	2016
58720256	4208	3632
59768832	3360	3088
60817408	3344	2784
61865984	3280	3184
62914560	3408	3248
63963136	26144	25648
65011712	28000	26336
66060288	1696	1600
67108864	4448	4256
69206016	4080	3792
71303168	5600	5344
73400320	7600	6160
75497472	8080	7600
77594624	32208	30512
79691776	16944	16624
81788928	96	16
83886080	16	16
85983232	32	16
88080384	80	80
90177536	752	704
92274688	2688	2400
94371840	448	288
96468992	1456	1104
98566144	0	0
100663296	64	0
102760448	1328	1248
104857600	32	32
106954752	128	64
109051904	432	384
111149056	1376	1120
113246208	64	0
115343360	48	48
117440512	16	0
119537664	16	16
121634816	0	0
123731968	16	0
125829120	16	0
127926272	128	112
130023424	64	48
132120576	0	0
134217728	80	32
138412032	48	0
142606336	4272	3808
146800640	128	32
150994944	272	96
155189248	1808	1680
159383552	432	64
163577856	176	48
167772160	96	64
171966464	32	0
176160768	32	16
180355072	0	0
184549376	0	0
188743680	32	16
192937984	0	0
197132288	0	0
201326592	16	16
205520896	128	48
209715200	0	0
213909504	0	0
218103808	48	32
222298112	64	64
226492416	0	0
230686720	0	0
234881024	64	32
239075328	48	16
243269632	0	0
247463936	224	224
251658240	16	0
255852544	16	16
260046848	0	0
264241152	32	16
268435456	48	48
276824064	0	0
285212672	16	16
293601280	0	0
301989888	16	16
310378496	0	0
318767104	0	0
327155712	192	16
335544320	16	0
343932928	16	16
352321536	0	0
360710144	0	0
369098752	0	0
377487360	16	0
385875968	0	0
394264576	0	0
402653184	0	0
411041792	0	0
419430400	0	0
427819008	0	0
436207616	0	0
444596224	0	0
452984832	0	0
461373440	0	0
469762048	0	0
478150656	0	0
486539264	0	0
494927872	0	0
503316480	0	0
511705088	0	0
520093696	0	0
528482304	0	0
536870912	0	0
553648128	0	0
570425344	0	0
587202560	0	0
603979776	0	0
620756992	0	0
637534208	0	0
654311424	0	0
671088640	0	0
687865856	0	0
704643072	0	0
721420288	0	0
738197504	0	0
754974720	0	0
771751936	0	0
788529152	0	0
805306368	0	0
822083584	0	0
838860800	0	0
855638016	0	0
872415232	0	0
889192448	0	0
905969664	0	0
922746880	0	0
939524096	0	0
956301312	0	0
973078528	0	0
989855744	0	0
1006632960	0	0
1023410176	0	0
1040187392	0	0
1056964608	0	0
1073741824	0	0
1107296256	0	0
1140850688	0	0
1174405120	0	0
1207959552	0	0
1241513984	0	0
1275068416	0	0
1308622848	0	0
1342177280	0	0
1375731712	0	0
1409286144	0	0
1442840576	0	0
1476395008	0	0
1509949440	0	0
1543503872	0	0
1577058304	0	0
1610612736	0	0
1644167168	0	0
1677721600	0	0
1711276032	0	0
1744830464	0	0
1778384896	0	0
1811939328	0	0
1845493760	0	0
1879048192	0	0
1912602624	0	0
1946157056	0	0
1979711488	0	0
2013265920	0	0
2046820352	0	0
2080374784	0	0
2113929216	0	0
2147483648	0	0
2214592512	0	0
2281701376	0	0
2348810240	0	0
2415919104	0	0
2483027968	0	0
2550136832	0	0
2617245696	0	0
2684354560	0	0
2751463424	0	0
2818572288	0	0
2885681152	0	0
2952790016	0	0
3019898880	0	0
3087007744	0	0
3154116608	0	0
3221225472	0	0
3288334336	0	0
3355443200	0	0
3422552064	0	0
3489660928	0	0
3556769792	0	0
3623878656	0	0
3690987520	0	0
3758096384	0	0
3825205248	0	0
3892314112	0	0
3959422976	0	0
4026531840	0	0
4093640704	0	0
4160749568	0	0
4227858432	0	0
~~~~~~~~~~Reuse Distance Profiler output end~~~~~~~~~~

DRAM Statistics
 CHANNEL 0
 RQ ROW_BUFFER_HIT:     177133  ROW_BUFFER_MISS:    1016854
 DBUS AVG_CONGESTED_CYCLE:    3.83537
 WQ ROW_BUFFER_HIT:     121999  ROW_BUFFER_MISS:      76443  FULL:          0


CPU 0 Branch Prediction Accuracy: 93.85% MPKI: 12.7425 Average ROB Occupancy at Mispredict: 40.7826
Branch type MPKI
BRANCH_DIRECT_JUMP: 0.000791333
BRANCH_INDIRECT: 0.375166
BRANCH_CONDITIONAL: 11.8804
BRANCH_DIRECT_CALL: 0.00117133
BRANCH_INDIRECT_CALL: 0.478365
BRANCH_RETURN: 0.006522

