
*** ChampSim Multicore Out-of-Order Simulator ***

Warmup Instructions: 100000000
Simulation Instructions: 1500000000
Number of CPUs: 1
Off-chip DRAM Size: 4 GiB Channels: 1 Width: 64-bit Data Rate: 3200 MT/s

VirtualMemory physical capacity: 8588881920 num_ppages: 2096895
VirtualMemory page size: 4096 log2_page_size: 12

CPU 0 runs traces/400.perlbench-50B.champsimtrace.xz
CPU 0 Bimodal branch predictor
Basic BTB sets: 1024 ways: 8 indirect buffer size: 4096 RAS size: 64
Initializing LRU.
Initializing LRU.
Initializing LRU.
Initializing LRU.
Initializing rdLRU.
Initializing LRU.
Initializing LRU.
Heartbeat CPU 0 instructions: 10000002 cycles: 2500185 heartbeat IPC: 3.9997 cumulative IPC: 3.9997 (Simulation time: 0 hr 0 min 32 sec) 
Heartbeat CPU 0 instructions: 20000002 cycles: 5000185 heartbeat IPC: 4 cumulative IPC: 3.99985 (Simulation time: 0 hr 1 min 3 sec) 
Heartbeat CPU 0 instructions: 30000002 cycles: 7500185 heartbeat IPC: 4 cumulative IPC: 3.9999 (Simulation time: 0 hr 1 min 34 sec) 
Heartbeat CPU 0 instructions: 40000002 cycles: 10000185 heartbeat IPC: 4 cumulative IPC: 3.99993 (Simulation time: 0 hr 2 min 5 sec) 
Heartbeat CPU 0 instructions: 50000002 cycles: 12500185 heartbeat IPC: 4 cumulative IPC: 3.99994 (Simulation time: 0 hr 2 min 36 sec) 
Heartbeat CPU 0 instructions: 60000002 cycles: 15000185 heartbeat IPC: 4 cumulative IPC: 3.99995 (Simulation time: 0 hr 3 min 8 sec) 
Heartbeat CPU 0 instructions: 70000002 cycles: 17500185 heartbeat IPC: 4 cumulative IPC: 3.99996 (Simulation time: 0 hr 3 min 39 sec) 
Heartbeat CPU 0 instructions: 80000002 cycles: 20000185 heartbeat IPC: 4 cumulative IPC: 3.99996 (Simulation time: 0 hr 4 min 10 sec) 
Heartbeat CPU 0 instructions: 90000002 cycles: 22500185 heartbeat IPC: 4 cumulative IPC: 3.99997 (Simulation time: 0 hr 4 min 42 sec) 
Heartbeat CPU 0 instructions: 100000002 cycles: 25000185 heartbeat IPC: 4 cumulative IPC: 3.99997 (Simulation time: 0 hr 5 min 13 sec) 

Warmup complete CPU 0 instructions: 100000002 cycles: 25000185 (Simulation time: 0 hr 5 min 13 sec) 

Heartbeat CPU 0 instructions: 110000002 cycles: 33929764 heartbeat IPC: 1.11987 cumulative IPC: 1.11987 (Simulation time: 0 hr 5 min 48 sec) 
Heartbeat CPU 0 instructions: 120000000 cycles: 43897115 heartbeat IPC: 1.00328 cumulative IPC: 1.05837 (Simulation time: 0 hr 6 min 25 sec) 
Heartbeat CPU 0 instructions: 130000000 cycles: 53313546 heartbeat IPC: 1.06197 cumulative IPC: 1.05957 (Simulation time: 0 hr 7 min 2 sec) 
Heartbeat CPU 0 instructions: 140000002 cycles: 62412442 heartbeat IPC: 1.09903 cumulative IPC: 1.06917 (Simulation time: 0 hr 7 min 38 sec) 
Heartbeat CPU 0 instructions: 150000004 cycles: 71184070 heartbeat IPC: 1.14004 cumulative IPC: 1.08263 (Simulation time: 0 hr 8 min 14 sec) 
Heartbeat CPU 0 instructions: 160000001 cycles: 81083844 heartbeat IPC: 1.01012 cumulative IPC: 1.06983 (Simulation time: 0 hr 8 min 51 sec) 
Heartbeat CPU 0 instructions: 170000000 cycles: 90844671 heartbeat IPC: 1.0245 cumulative IPC: 1.06311 (Simulation time: 0 hr 9 min 26 sec) 
Heartbeat CPU 0 instructions: 180000002 cycles: 102049045 heartbeat IPC: 0.892509 cumulative IPC: 1.0383 (Simulation time: 0 hr 10 min 5 sec) 
Heartbeat CPU 0 instructions: 190000000 cycles: 110639443 heartbeat IPC: 1.16409 cumulative IPC: 1.05092 (Simulation time: 0 hr 10 min 43 sec) 
Heartbeat CPU 0 instructions: 200000002 cycles: 119652421 heartbeat IPC: 1.10951 cumulative IPC: 1.0565 (Simulation time: 0 hr 11 min 18 sec) 
Heartbeat CPU 0 instructions: 210000002 cycles: 129443625 heartbeat IPC: 1.02132 cumulative IPC: 1.0532 (Simulation time: 0 hr 11 min 57 sec) 
Heartbeat CPU 0 instructions: 220000001 cycles: 138130149 heartbeat IPC: 1.15121 cumulative IPC: 1.06073 (Simulation time: 0 hr 12 min 32 sec) 
Heartbeat CPU 0 instructions: 230000000 cycles: 147903712 heartbeat IPC: 1.02317 cumulative IPC: 1.05774 (Simulation time: 0 hr 13 min 7 sec) 
Heartbeat CPU 0 instructions: 240000000 cycles: 156681888 heartbeat IPC: 1.13919 cumulative IPC: 1.06317 (Simulation time: 0 hr 13 min 43 sec) 
Heartbeat CPU 0 instructions: 250000000 cycles: 164338821 heartbeat IPC: 1.30601 cumulative IPC: 1.07651 (Simulation time: 0 hr 14 min 15 sec) 
Heartbeat CPU 0 instructions: 260000000 cycles: 173803327 heartbeat IPC: 1.05658 cumulative IPC: 1.07525 (Simulation time: 0 hr 14 min 50 sec) 
Heartbeat CPU 0 instructions: 270000004 cycles: 185421549 heartbeat IPC: 0.860717 cumulative IPC: 1.05971 (Simulation time: 0 hr 15 min 32 sec) 
Heartbeat CPU 0 instructions: 280000000 cycles: 201301504 heartbeat IPC: 0.629724 cumulative IPC: 1.02098 (Simulation time: 0 hr 16 min 25 sec) 
Heartbeat CPU 0 instructions: 290000001 cycles: 215558582 heartbeat IPC: 0.701406 cumulative IPC: 0.99707 (Simulation time: 0 hr 17 min 17 sec) 
Heartbeat CPU 0 instructions: 300000002 cycles: 230910108 heartbeat IPC: 0.651401 cumulative IPC: 0.971299 (Simulation time: 0 hr 18 min 9 sec) 
Heartbeat CPU 0 instructions: 310000003 cycles: 248703595 heartbeat IPC: 0.562003 cumulative IPC: 0.938743 (Simulation time: 0 hr 19 min 4 sec) 
Heartbeat CPU 0 instructions: 320000000 cycles: 260644728 heartbeat IPC: 0.837441 cumulative IPC: 0.93361 (Simulation time: 0 hr 19 min 49 sec) 
Heartbeat CPU 0 instructions: 330000001 cycles: 270827591 heartbeat IPC: 0.982042 cumulative IPC: 0.935616 (Simulation time: 0 hr 20 min 27 sec) 
Heartbeat CPU 0 instructions: 340000000 cycles: 280448545 heartbeat IPC: 1.0394 cumulative IPC: 0.939525 (Simulation time: 0 hr 21 min 4 sec) 
Heartbeat CPU 0 instructions: 350000002 cycles: 290468032 heartbeat IPC: 0.998055 cumulative IPC: 0.941734 (Simulation time: 0 hr 21 min 44 sec) 
Heartbeat CPU 0 instructions: 360000001 cycles: 300478940 heartbeat IPC: 0.99891 cumulative IPC: 0.943811 (Simulation time: 0 hr 22 min 21 sec) 
Heartbeat CPU 0 instructions: 370000004 cycles: 310498320 heartbeat IPC: 0.998066 cumulative IPC: 0.945715 (Simulation time: 0 hr 22 min 59 sec) 
Heartbeat CPU 0 instructions: 380000000 cycles: 321110261 heartbeat IPC: 0.942334 cumulative IPC: 0.945594 (Simulation time: 0 hr 23 min 38 sec) 
Heartbeat CPU 0 instructions: 390000000 cycles: 331266157 heartbeat IPC: 0.98465 cumulative IPC: 0.946889 (Simulation time: 0 hr 24 min 17 sec) 
Heartbeat CPU 0 instructions: 400000001 cycles: 340966290 heartbeat IPC: 1.03091 cumulative IPC: 0.949469 (Simulation time: 0 hr 24 min 55 sec) 
Heartbeat CPU 0 instructions: 410000000 cycles: 353907452 heartbeat IPC: 0.772728 cumulative IPC: 0.942515 (Simulation time: 0 hr 25 min 39 sec) 
Heartbeat CPU 0 instructions: 420000003 cycles: 370189337 heartbeat IPC: 0.61418 cumulative IPC: 0.927028 (Simulation time: 0 hr 26 min 33 sec) 
Heartbeat CPU 0 instructions: 430000000 cycles: 385985078 heartbeat IPC: 0.633082 cumulative IPC: 0.914166 (Simulation time: 0 hr 27 min 26 sec) 
Heartbeat CPU 0 instructions: 440000003 cycles: 400268280 heartbeat IPC: 0.700123 cumulative IPC: 0.906019 (Simulation time: 0 hr 28 min 15 sec) 
Heartbeat CPU 0 instructions: 450000001 cycles: 413127848 heartbeat IPC: 0.777631 cumulative IPC: 0.901765 (Simulation time: 0 hr 29 min 5 sec) 
Heartbeat CPU 0 instructions: 460000001 cycles: 428847905 heartbeat IPC: 0.63613 cumulative IPC: 0.891425 (Simulation time: 0 hr 29 min 57 sec) 
Heartbeat CPU 0 instructions: 470000001 cycles: 444664919 heartbeat IPC: 0.632231 cumulative IPC: 0.881656 (Simulation time: 0 hr 30 min 48 sec) 
Heartbeat CPU 0 instructions: 480000003 cycles: 455112979 heartbeat IPC: 0.957116 cumulative IPC: 0.883489 (Simulation time: 0 hr 31 min 27 sec) 
Heartbeat CPU 0 instructions: 490000004 cycles: 465376318 heartbeat IPC: 0.974342 cumulative IPC: 0.885607 (Simulation time: 0 hr 32 min 6 sec) 
Heartbeat CPU 0 instructions: 500000003 cycles: 475881987 heartbeat IPC: 0.951867 cumulative IPC: 0.88715 (Simulation time: 0 hr 32 min 44 sec) 
Heartbeat CPU 0 instructions: 510000000 cycles: 486677992 heartbeat IPC: 0.926268 cumulative IPC: 0.888065 (Simulation time: 0 hr 33 min 24 sec) 
Heartbeat CPU 0 instructions: 520000000 cycles: 497036797 heartbeat IPC: 0.965362 cumulative IPC: 0.889762 (Simulation time: 0 hr 34 min 2 sec) 
Heartbeat CPU 0 instructions: 530000004 cycles: 513157819 heartbeat IPC: 0.620308 cumulative IPC: 0.880863 (Simulation time: 0 hr 34 min 53 sec) 
Heartbeat CPU 0 instructions: 540000001 cycles: 528969445 heartbeat IPC: 0.632446 cumulative IPC: 0.873069 (Simulation time: 0 hr 35 min 48 sec) 
Heartbeat CPU 0 instructions: 550000001 cycles: 545895134 heartbeat IPC: 0.590818 cumulative IPC: 0.863898 (Simulation time: 0 hr 36 min 42 sec) 
Heartbeat CPU 0 instructions: 560000004 cycles: 555135668 heartbeat IPC: 1.08219 cumulative IPC: 0.867703 (Simulation time: 0 hr 37 min 21 sec) 
Heartbeat CPU 0 instructions: 570000002 cycles: 564710792 heartbeat IPC: 1.04437 cumulative IPC: 0.870837 (Simulation time: 0 hr 37 min 59 sec) 
Heartbeat CPU 0 instructions: 580000000 cycles: 574038649 heartbeat IPC: 1.07206 cumulative IPC: 0.874256 (Simulation time: 0 hr 38 min 39 sec) 
Heartbeat CPU 0 instructions: 590000002 cycles: 583723817 heartbeat IPC: 1.03251 cumulative IPC: 0.876999 (Simulation time: 0 hr 39 min 14 sec) 
Heartbeat CPU 0 instructions: 600000002 cycles: 593841579 heartbeat IPC: 0.988361 cumulative IPC: 0.87898 (Simulation time: 0 hr 39 min 51 sec) 
Heartbeat CPU 0 instructions: 610000001 cycles: 603538205 heartbeat IPC: 1.03129 cumulative IPC: 0.881532 (Simulation time: 0 hr 40 min 27 sec) 
Heartbeat CPU 0 instructions: 620000001 cycles: 613520471 heartbeat IPC: 1.00178 cumulative IPC: 0.883572 (Simulation time: 0 hr 41 min 3 sec) 
Heartbeat CPU 0 instructions: 630000000 cycles: 622051458 heartbeat IPC: 1.1722 cumulative IPC: 0.887696 (Simulation time: 0 hr 41 min 45 sec) 
Heartbeat CPU 0 instructions: 640000002 cycles: 632491435 heartbeat IPC: 0.957857 cumulative IPC: 0.888902 (Simulation time: 0 hr 42 min 21 sec) 
Heartbeat CPU 0 instructions: 650000003 cycles: 642521513 heartbeat IPC: 0.997001 cumulative IPC: 0.890657 (Simulation time: 0 hr 42 min 57 sec) 
Heartbeat CPU 0 instructions: 660000003 cycles: 651779472 heartbeat IPC: 1.08015 cumulative IPC: 0.893456 (Simulation time: 0 hr 43 min 36 sec) 
Heartbeat CPU 0 instructions: 670000000 cycles: 661136802 heartbeat IPC: 1.06868 cumulative IPC: 0.896034 (Simulation time: 0 hr 44 min 13 sec) 
Heartbeat CPU 0 instructions: 680000000 cycles: 669197576 heartbeat IPC: 1.24058 cumulative IPC: 0.900345 (Simulation time: 0 hr 44 min 46 sec) 
Heartbeat CPU 0 instructions: 690000002 cycles: 677890217 heartbeat IPC: 1.1504 cumulative IPC: 0.903674 (Simulation time: 0 hr 45 min 23 sec) 
Heartbeat CPU 0 instructions: 700000003 cycles: 686417265 heartbeat IPC: 1.17274 cumulative IPC: 0.907143 (Simulation time: 0 hr 45 min 56 sec) 
Heartbeat CPU 0 instructions: 710000003 cycles: 696861906 heartbeat IPC: 0.957429 cumulative IPC: 0.907925 (Simulation time: 0 hr 46 min 32 sec) 
Heartbeat CPU 0 instructions: 720000002 cycles: 704683228 heartbeat IPC: 1.27856 cumulative IPC: 0.91219 (Simulation time: 0 hr 47 min 18 sec) 
Heartbeat CPU 0 instructions: 730000002 cycles: 713757544 heartbeat IPC: 1.10201 cumulative IPC: 0.914691 (Simulation time: 0 hr 47 min 57 sec) 
Heartbeat CPU 0 instructions: 740000002 cycles: 723718982 heartbeat IPC: 1.00387 cumulative IPC: 0.915962 (Simulation time: 0 hr 48 min 32 sec) 
Heartbeat CPU 0 instructions: 750000001 cycles: 732837682 heartbeat IPC: 1.09665 cumulative IPC: 0.91829 (Simulation time: 0 hr 49 min 7 sec) 
Heartbeat CPU 0 instructions: 760000001 cycles: 742137764 heartbeat IPC: 1.07526 cumulative IPC: 0.920326 (Simulation time: 0 hr 49 min 44 sec) 
Heartbeat CPU 0 instructions: 770000004 cycles: 751825411 heartbeat IPC: 1.03224 cumulative IPC: 0.921817 (Simulation time: 0 hr 50 min 23 sec) 
Heartbeat CPU 0 instructions: 780000003 cycles: 760958732 heartbeat IPC: 1.09489 cumulative IPC: 0.923965 (Simulation time: 0 hr 50 min 58 sec) 
Heartbeat CPU 0 instructions: 790000000 cycles: 769949598 heartbeat IPC: 1.11224 cumulative IPC: 0.926237 (Simulation time: 0 hr 51 min 35 sec) 
Heartbeat CPU 0 instructions: 800000001 cycles: 779550195 heartbeat IPC: 1.0416 cumulative IPC: 0.927705 (Simulation time: 0 hr 52 min 10 sec) 
Heartbeat CPU 0 instructions: 810000001 cycles: 789871825 heartbeat IPC: 0.968839 cumulative IPC: 0.92826 (Simulation time: 0 hr 52 min 47 sec) 
Heartbeat CPU 0 instructions: 820000004 cycles: 799742318 heartbeat IPC: 1.01312 cumulative IPC: 0.929341 (Simulation time: 0 hr 53 min 25 sec) 
Heartbeat CPU 0 instructions: 830000000 cycles: 809163769 heartbeat IPC: 1.06141 cumulative IPC: 0.930928 (Simulation time: 0 hr 54 min 2 sec) 
Heartbeat CPU 0 instructions: 840000003 cycles: 817840426 heartbeat IPC: 1.15252 cumulative IPC: 0.933353 (Simulation time: 0 hr 54 min 38 sec) 
Heartbeat CPU 0 instructions: 850000003 cycles: 827794434 heartbeat IPC: 1.00462 cumulative IPC: 0.934237 (Simulation time: 0 hr 55 min 14 sec) 
Heartbeat CPU 0 instructions: 860000000 cycles: 836768898 heartbeat IPC: 1.11427 cumulative IPC: 0.936227 (Simulation time: 0 hr 55 min 52 sec) 
Heartbeat CPU 0 instructions: 870000000 cycles: 846761453 heartbeat IPC: 1.00075 cumulative IPC: 0.937012 (Simulation time: 0 hr 56 min 30 sec) 
Heartbeat CPU 0 instructions: 880000004 cycles: 856111221 heartbeat IPC: 1.06955 cumulative IPC: 0.938503 (Simulation time: 0 hr 57 min 5 sec) 
Heartbeat CPU 0 instructions: 890000000 cycles: 866658583 heartbeat IPC: 0.948104 cumulative IPC: 0.938623 (Simulation time: 0 hr 57 min 42 sec) 
Heartbeat CPU 0 instructions: 900000002 cycles: 878980271 heartbeat IPC: 0.811577 cumulative IPC: 0.93679 (Simulation time: 0 hr 58 min 22 sec) 
Heartbeat CPU 0 instructions: 910000003 cycles: 888900433 heartbeat IPC: 1.00805 cumulative IPC: 0.937608 (Simulation time: 0 hr 58 min 59 sec) 
Heartbeat CPU 0 instructions: 920000001 cycles: 898087169 heartbeat IPC: 1.08853 cumulative IPC: 0.939196 (Simulation time: 0 hr 59 min 41 sec) 
Heartbeat CPU 0 instructions: 930000003 cycles: 907326542 heartbeat IPC: 1.08232 cumulative IPC: 0.940695 (Simulation time: 1 hr 0 min 17 sec) 
Heartbeat CPU 0 instructions: 940000002 cycles: 916201197 heartbeat IPC: 1.1268 cumulative IPC: 0.942548 (Simulation time: 1 hr 0 min 53 sec) 
Heartbeat CPU 0 instructions: 950000002 cycles: 926201064 heartbeat IPC: 1.00001 cumulative IPC: 0.943186 (Simulation time: 1 hr 1 min 33 sec) 
Heartbeat CPU 0 instructions: 960000002 cycles: 935798004 heartbeat IPC: 1.042 cumulative IPC: 0.944227 (Simulation time: 1 hr 2 min 11 sec) 
Heartbeat CPU 0 instructions: 970000000 cycles: 944833170 heartbeat IPC: 1.10679 cumulative IPC: 0.945824 (Simulation time: 1 hr 2 min 47 sec) 
Heartbeat CPU 0 instructions: 980000000 cycles: 955226888 heartbeat IPC: 0.96212 cumulative IPC: 0.946006 (Simulation time: 1 hr 3 min 23 sec) 
Heartbeat CPU 0 instructions: 990000000 cycles: 964349799 heartbeat IPC: 1.09614 cumulative IPC: 0.947464 (Simulation time: 1 hr 3 min 57 sec) 
Heartbeat CPU 0 instructions: 1000000000 cycles: 973254743 heartbeat IPC: 1.12297 cumulative IPC: 0.949112 (Simulation time: 1 hr 4 min 36 sec) 
Heartbeat CPU 0 instructions: 1010000004 cycles: 981515508 heartbeat IPC: 1.21054 cumulative IPC: 0.95137 (Simulation time: 1 hr 5 min 9 sec) 
Heartbeat CPU 0 instructions: 1020000000 cycles: 990641857 heartbeat IPC: 1.09573 cumulative IPC: 0.952734 (Simulation time: 1 hr 5 min 44 sec) 
Heartbeat CPU 0 instructions: 1030000000 cycles: 1000284241 heartbeat IPC: 1.03709 cumulative IPC: 0.953568 (Simulation time: 1 hr 6 min 20 sec) 
Heartbeat CPU 0 instructions: 1040000001 cycles: 1010969262 heartbeat IPC: 0.93589 cumulative IPC: 0.953377 (Simulation time: 1 hr 6 min 59 sec) 
Heartbeat CPU 0 instructions: 1050000000 cycles: 1021508626 heartbeat IPC: 0.948824 cumulative IPC: 0.953329 (Simulation time: 1 hr 7 min 40 sec) 
Heartbeat CPU 0 instructions: 1060000001 cycles: 1037403668 heartbeat IPC: 0.629127 cumulative IPC: 0.948239 (Simulation time: 1 hr 8 min 32 sec) 
Heartbeat CPU 0 instructions: 1070000002 cycles: 1049397766 heartbeat IPC: 0.833743 cumulative IPC: 0.946898 (Simulation time: 1 hr 9 min 15 sec) 
Heartbeat CPU 0 instructions: 1080000001 cycles: 1061526897 heartbeat IPC: 0.824461 cumulative IPC: 0.945465 (Simulation time: 1 hr 10 min 3 sec) 
Heartbeat CPU 0 instructions: 1090000000 cycles: 1079478785 heartbeat IPC: 0.557044 cumulative IPC: 0.938853 (Simulation time: 1 hr 10 min 59 sec) 
Heartbeat CPU 0 instructions: 1100000003 cycles: 1092705561 heartbeat IPC: 0.756042 cumulative IPC: 0.936588 (Simulation time: 1 hr 11 min 46 sec) 
Heartbeat CPU 0 instructions: 1110000002 cycles: 1103531068 heartbeat IPC: 0.923744 cumulative IPC: 0.936459 (Simulation time: 1 hr 12 min 27 sec) 
Heartbeat CPU 0 instructions: 1120000001 cycles: 1114635867 heartbeat IPC: 0.900512 cumulative IPC: 0.936093 (Simulation time: 1 hr 13 min 7 sec) 
Heartbeat CPU 0 instructions: 1130000001 cycles: 1125636907 heartbeat IPC: 0.909005 cumulative IPC: 0.935822 (Simulation time: 1 hr 13 min 48 sec) 
Heartbeat CPU 0 instructions: 1140000000 cycles: 1140285087 heartbeat IPC: 0.682679 cumulative IPC: 0.932497 (Simulation time: 1 hr 14 min 37 sec) 
Heartbeat CPU 0 instructions: 1150000003 cycles: 1154732521 heartbeat IPC: 0.692165 cumulative IPC: 0.929424 (Simulation time: 1 hr 15 min 28 sec) 
Heartbeat CPU 0 instructions: 1160000002 cycles: 1170126645 heartbeat IPC: 0.649598 cumulative IPC: 0.925662 (Simulation time: 1 hr 16 min 21 sec) 
Heartbeat CPU 0 instructions: 1170000002 cycles: 1182718733 heartbeat IPC: 0.794149 cumulative IPC: 0.924232 (Simulation time: 1 hr 17 min 10 sec) 
Heartbeat CPU 0 instructions: 1180000001 cycles: 1199114269 heartbeat IPC: 0.609922 cumulative IPC: 0.919842 (Simulation time: 1 hr 18 min 2 sec) 
Heartbeat CPU 0 instructions: 1190000000 cycles: 1209626468 heartbeat IPC: 0.951276 cumulative IPC: 0.920121 (Simulation time: 1 hr 18 min 41 sec) 
Heartbeat CPU 0 instructions: 1200000002 cycles: 1220305778 heartbeat IPC: 0.93639 cumulative IPC: 0.920267 (Simulation time: 1 hr 19 min 21 sec) 
Heartbeat CPU 0 instructions: 1210000001 cycles: 1231214127 heartbeat IPC: 0.916729 cumulative IPC: 0.920235 (Simulation time: 1 hr 20 min 1 sec) 
Heartbeat CPU 0 instructions: 1220000001 cycles: 1244000844 heartbeat IPC: 0.782062 cumulative IPC: 0.918785 (Simulation time: 1 hr 20 min 44 sec) 
Heartbeat CPU 0 instructions: 1230000000 cycles: 1260484404 heartbeat IPC: 0.606665 cumulative IPC: 0.914621 (Simulation time: 1 hr 21 min 39 sec) 
Heartbeat CPU 0 instructions: 1240000004 cycles: 1276291973 heartbeat IPC: 0.632609 cumulative IPC: 0.911058 (Simulation time: 1 hr 22 min 30 sec) 
Heartbeat CPU 0 instructions: 1250000002 cycles: 1285558486 heartbeat IPC: 1.07915 cumulative IPC: 0.912294 (Simulation time: 1 hr 23 min 9 sec) 
Heartbeat CPU 0 instructions: 1260000000 cycles: 1295437353 heartbeat IPC: 1.01226 cumulative IPC: 0.913072 (Simulation time: 1 hr 23 min 45 sec) 
Heartbeat CPU 0 instructions: 1270000000 cycles: 1304645532 heartbeat IPC: 1.08599 cumulative IPC: 0.914316 (Simulation time: 1 hr 24 min 22 sec) 
Heartbeat CPU 0 instructions: 1280000001 cycles: 1314540771 heartbeat IPC: 1.01059 cumulative IPC: 0.915055 (Simulation time: 1 hr 24 min 58 sec) 
Heartbeat CPU 0 instructions: 1290000000 cycles: 1323472605 heartbeat IPC: 1.11959 cumulative IPC: 0.916462 (Simulation time: 1 hr 25 min 35 sec) 
Heartbeat CPU 0 instructions: 1300000001 cycles: 1331619719 heartbeat IPC: 1.22743 cumulative IPC: 0.9184 (Simulation time: 1 hr 26 min 8 sec) 
Heartbeat CPU 0 instructions: 1310000000 cycles: 1340900546 heartbeat IPC: 1.07749 cumulative IPC: 0.919523 (Simulation time: 1 hr 26 min 48 sec) 
Heartbeat CPU 0 instructions: 1320000000 cycles: 1350386293 heartbeat IPC: 1.05421 cumulative IPC: 0.920487 (Simulation time: 1 hr 27 min 24 sec) 
Heartbeat CPU 0 instructions: 1330000001 cycles: 1359381851 heartbeat IPC: 1.11166 cumulative IPC: 0.921775 (Simulation time: 1 hr 27 min 59 sec) 
Heartbeat CPU 0 instructions: 1340000000 cycles: 1368366286 heartbeat IPC: 1.11304 cumulative IPC: 0.923054 (Simulation time: 1 hr 28 min 35 sec) 
Heartbeat CPU 0 instructions: 1350000002 cycles: 1378184847 heartbeat IPC: 1.01848 cumulative IPC: 0.923747 (Simulation time: 1 hr 29 min 10 sec) 
Heartbeat CPU 0 instructions: 1360000001 cycles: 1387187889 heartbeat IPC: 1.11074 cumulative IPC: 0.924983 (Simulation time: 1 hr 29 min 46 sec) 
Heartbeat CPU 0 instructions: 1370000000 cycles: 1396581567 heartbeat IPC: 1.06455 cumulative IPC: 0.925938 (Simulation time: 1 hr 30 min 24 sec) 
Heartbeat CPU 0 instructions: 1380000004 cycles: 1406451978 heartbeat IPC: 1.01313 cumulative IPC: 0.926561 (Simulation time: 1 hr 30 min 59 sec) 
Heartbeat CPU 0 instructions: 1390000002 cycles: 1417136771 heartbeat IPC: 0.935909 cumulative IPC: 0.926633 (Simulation time: 1 hr 31 min 37 sec) 
Heartbeat CPU 0 instructions: 1400000000 cycles: 1426124485 heartbeat IPC: 1.11263 cumulative IPC: 0.927826 (Simulation time: 1 hr 32 min 14 sec) 
Heartbeat CPU 0 instructions: 1410000000 cycles: 1435965770 heartbeat IPC: 1.01613 cumulative IPC: 0.928442 (Simulation time: 1 hr 32 min 53 sec) 
Heartbeat CPU 0 instructions: 1420000000 cycles: 1445285124 heartbeat IPC: 1.07304 cumulative IPC: 0.929391 (Simulation time: 1 hr 33 min 28 sec) 
Heartbeat CPU 0 instructions: 1430000000 cycles: 1454071591 heartbeat IPC: 1.13811 cumulative IPC: 0.930674 (Simulation time: 1 hr 34 min 3 sec) 
Heartbeat CPU 0 instructions: 1440000001 cycles: 1462850846 heartbeat IPC: 1.13905 cumulative IPC: 0.931947 (Simulation time: 1 hr 34 min 37 sec) 
Heartbeat CPU 0 instructions: 1450000002 cycles: 1474594633 heartbeat IPC: 0.851514 cumulative IPC: 0.931295 (Simulation time: 1 hr 35 min 19 sec) 
Heartbeat CPU 0 instructions: 1460000001 cycles: 1490039508 heartbeat IPC: 0.647464 cumulative IPC: 0.928303 (Simulation time: 1 hr 36 min 14 sec) 
Heartbeat CPU 0 instructions: 1470000001 cycles: 1507054954 heartbeat IPC: 0.587701 cumulative IPC: 0.924392 (Simulation time: 1 hr 37 min 8 sec) 
Heartbeat CPU 0 instructions: 1480000002 cycles: 1517531895 heartbeat IPC: 0.954477 cumulative IPC: 0.924603 (Simulation time: 1 hr 37 min 48 sec) 
Heartbeat CPU 0 instructions: 1490000000 cycles: 1528133210 heartbeat IPC: 0.943279 cumulative IPC: 0.924735 (Simulation time: 1 hr 38 min 28 sec) 
Heartbeat CPU 0 instructions: 1500000001 cycles: 1538995271 heartbeat IPC: 0.920636 cumulative IPC: 0.924706 (Simulation time: 1 hr 39 min 9 sec) 
Heartbeat CPU 0 instructions: 1510000000 cycles: 1553820479 heartbeat IPC: 0.674527 cumulative IPC: 0.92228 (Simulation time: 1 hr 39 min 58 sec) 
Heartbeat CPU 0 instructions: 1520000000 cycles: 1569582500 heartbeat IPC: 0.634436 cumulative IPC: 0.919342 (Simulation time: 1 hr 40 min 51 sec) 
Heartbeat CPU 0 instructions: 1530000003 cycles: 1586698370 heartbeat IPC: 0.584253 cumulative IPC: 0.91567 (Simulation time: 1 hr 41 min 49 sec) 
Heartbeat CPU 0 instructions: 1540000001 cycles: 1597020478 heartbeat IPC: 0.968794 cumulative IPC: 0.916019 (Simulation time: 1 hr 42 min 28 sec) 
Heartbeat CPU 0 instructions: 1550000001 cycles: 1607534889 heartbeat IPC: 0.951076 cumulative IPC: 0.916252 (Simulation time: 1 hr 43 min 7 sec) 
Heartbeat CPU 0 instructions: 1560000002 cycles: 1618224485 heartbeat IPC: 0.935489 cumulative IPC: 0.916381 (Simulation time: 1 hr 43 min 46 sec) 
Heartbeat CPU 0 instructions: 1570000001 cycles: 1635934168 heartbeat IPC: 0.564663 cumulative IPC: 0.912514 (Simulation time: 1 hr 44 min 42 sec) 
Heartbeat CPU 0 instructions: 1580000002 cycles: 1650066540 heartbeat IPC: 0.707595 cumulative IPC: 0.910732 (Simulation time: 1 hr 45 min 33 sec) 
Heartbeat CPU 0 instructions: 1590000003 cycles: 1663912934 heartbeat IPC: 0.72221 cumulative IPC: 0.909139 (Simulation time: 1 hr 46 min 20 sec) 
Heartbeat CPU 0 instructions: 1600000000 cycles: 1674561612 heartbeat IPC: 0.939083 cumulative IPC: 0.909333 (Simulation time: 1 hr 47 min 0 sec) 
Finished CPU 0 instructions: 1500000004 cycles: 1649561434 cumulative IPC: 0.909333 (Simulation time: 1 hr 47 min 0 sec) 

ChampSim completed all CPUs

Region of Interest Statistics

CPU 0 cumulative IPC: 0.909333 instructions: 1500000004 cycles: 1649561434
cpu0_DTLB TOTAL     ACCESS:  338864051  HIT:  336661636  MISS:    2202415
cpu0_DTLB LOAD      ACCESS:  225361121  HIT:  223478694  MISS:    1882427
cpu0_DTLB RFO       ACCESS:  113502930  HIT:  113182942  MISS:     319988
cpu0_DTLB PREFETCH  ACCESS:          0  HIT:          0  MISS:          0
cpu0_DTLB WRITEBACK ACCESS:          0  HIT:          0  MISS:          0
cpu0_DTLB TRANSLATION ACCESS:          0  HIT:          0  MISS:          0
cpu0_DTLB PREFETCH  REQUESTED:          0  ISSUED:          0  USEFUL:          0  USELESS:          0
cpu0_DTLB AVERAGE MISS LATENCY: 9.71425 cycles
cpu0_ITLB TOTAL     ACCESS:  135358218  HIT:  135242218  MISS:     116000
cpu0_ITLB LOAD      ACCESS:  135358218  HIT:  135242218  MISS:     116000
cpu0_ITLB RFO       ACCESS:          0  HIT:          0  MISS:          0
cpu0_ITLB PREFETCH  ACCESS:          0  HIT:          0  MISS:          0
cpu0_ITLB WRITEBACK ACCESS:          0  HIT:          0  MISS:          0
cpu0_ITLB TRANSLATION ACCESS:          0  HIT:          0  MISS:          0
cpu0_ITLB PREFETCH  REQUESTED:          0  ISSUED:          0  USEFUL:          0  USELESS:          0
cpu0_ITLB AVERAGE MISS LATENCY: 9.52197 cycles
cpu0_L1I TOTAL     ACCESS:   86645078  HIT:   84149423  MISS:    2495655
cpu0_L1I LOAD      ACCESS:   86645078  HIT:   84149423  MISS:    2495655
cpu0_L1I RFO       ACCESS:          0  HIT:          0  MISS:          0
cpu0_L1I PREFETCH  ACCESS:          0  HIT:          0  MISS:          0
cpu0_L1I WRITEBACK ACCESS:          0  HIT:          0  MISS:          0
cpu0_L1I TRANSLATION ACCESS:          0  HIT:          0  MISS:          0
cpu0_L1I PREFETCH  REQUESTED:          0  ISSUED:          0  USEFUL:          0  USELESS:          0
cpu0_L1I AVERAGE MISS LATENCY: 14.3209 cycles
cpu0_STLB TOTAL     ACCESS:    2318415  HIT:    2244014  MISS:      74401
cpu0_STLB LOAD      ACCESS:    1998427  HIT:    1931839  MISS:      66588
cpu0_STLB RFO       ACCESS:     319988  HIT:     312175  MISS:       7813
cpu0_STLB PREFETCH  ACCESS:          0  HIT:          0  MISS:          0
cpu0_STLB WRITEBACK ACCESS:          0  HIT:          0  MISS:          0
cpu0_STLB TRANSLATION ACCESS:          0  HIT:          0  MISS:          0
cpu0_STLB PREFETCH  REQUESTED:          0  ISSUED:          0  USEFUL:          0  USELESS:          0
cpu0_STLB AVERAGE MISS LATENCY: 21.7515 cycles
cpu0_L1D TOTAL     ACCESS:  420979406  HIT:  417780287  MISS:    3199119
cpu0_L1D LOAD      ACCESS:  215676698  HIT:  212759824  MISS:    2916874
cpu0_L1D RFO       ACCESS:  205228522  HIT:  204954286  MISS:     274236
cpu0_L1D PREFETCH  ACCESS:          0  HIT:          0  MISS:          0
cpu0_L1D WRITEBACK ACCESS:          0  HIT:          0  MISS:          0
cpu0_L1D TRANSLATION ACCESS:      74186  HIT:      66177  MISS:       8009
cpu0_L1D PREFETCH  REQUESTED:          0  ISSUED:          0  USEFUL:          0  USELESS:          0
cpu0_L1D AVERAGE MISS LATENCY: 55.9274 cycles
cpu0_L2C TOTAL     ACCESS:    6479944  HIT:    5344527  MISS:    1135417
cpu0_L2C LOAD      ACCESS:    5412438  HIT:    4366289  MISS:    1046149
cpu0_L2C RFO       ACCESS:     274230  HIT:     188320  MISS:      85910
cpu0_L2C PREFETCH  ACCESS:          0  HIT:          0  MISS:          0
cpu0_L2C WRITEBACK ACCESS:     785267  HIT:     782326  MISS:       2941
cpu0_L2C TRANSLATION ACCESS:       8009  HIT:       7592  MISS:        417
cpu0_L2C PREFETCH  REQUESTED:          0  ISSUED:          0  USEFUL:          0  USELESS:          0
cpu0_L2C AVERAGE MISS LATENCY: 133.82 cycles
LLC TOTAL     ACCESS:    1360681  HIT:     502868  MISS:     857813
LLC LOAD      ACCESS:    1046148  HIT:     246195  MISS:     799953
LLC RFO       ACCESS:      85910  HIT:      31430  MISS:      54480
LLC PREFETCH  ACCESS:          0  HIT:          0  MISS:          0
LLC WRITEBACK ACCESS:     228206  HIT:     224946  MISS:       3260
LLC TRANSLATION ACCESS:        417  HIT:        297  MISS:        120
LLC PREFETCH  REQUESTED:          0  ISSUED:          0  USEFUL:          0  USELESS:          0
LLC AVERAGE MISS LATENCY: 149.402 cycles
~~~~~~~~~~Reuse Distance Profiler output~~~~~~~~~~
0	90878912	7562368
1	28547360	15609120
2	22897120	10330496
3	14870624	5336832
4	11636368	8333520
5	8934816	6490928
6	13461952	8989088
7	7750560	5923792
8	8360080	4672320
9	6350752	2766272
10	7869280	4188848
11	6740304	2987824
12	9773872	7291904
13	9315840	5383568
14	8374480	5812128
15	8672816	6779504
16	9555456	6941056
17	4265872	3015120
18	3306144	2144112
19	4724864	3483184
20	3882960	3232256
21	1941296	1474064
22	2646224	1529920
23	4698848	2371408
24	2924944	1321808
25	4693488	3863808
26	2663008	2378944
27	1986432	1624528
28	1793200	1425616
29	1730096	1435024
30	3907920	3557072
31	2265664	1675392
32	988592	728736
33	2112896	959632
34	2169552	1235072
35	1469184	877072
36	868688	621840
37	1913920	523776
38	1282688	972608
39	3201616	1597568
40	2012224	1753664
41	1650880	445488
42	722192	380240
43	1341184	362624
44	1417584	493952
45	2214656	1420240
46	1113120	740608
47	1288224	394096
48	1298112	353232
49	1025632	679648
50	1067216	402192
51	738688	414816
52	7012848	4159072
53	1482048	924848
54	4288640	2594128
55	1190896	826432
56	2652080	1516640
57	1582368	1159920
58	2242192	1070160
59	868928	639264
60	1645008	945536
61	1054288	400672
62	1434400	886144
63	714272	506928
64	1377360	662624
66	995200	512224
68	1008640	487808
70	1675344	785312
72	954128	610256
74	1030544	607632
76	792320	597280
78	814416	577984
80	934880	644256
82	842288	498688
84	778432	393968
86	725312	445168
88	948144	717392
90	830400	624272
92	930224	490368
94	878224	485536
96	497008	342224
98	509968	406704
100	792496	692208
102	1076624	569552
104	1141824	764704
106	4846912	3120288
108	1545840	1021904
110	612992	459056
112	644368	524304
114	492016	348800
116	847696	523152
118	1162672	717056
120	1275408	859328
122	1098592	704160
124	652928	426176
126	504544	335744
128	811248	497200
132	1079280	696448
136	914096	558640
140	740992	479472
144	786496	513840
148	978784	660640
152	742496	514032
156	559792	430512
160	418608	335216
164	405168	298896
168	433552	341024
172	384976	302944
176	416432	283792
180	469520	320864
184	465200	330544
188	501504	340368
192	600144	413424
196	499024	348448
200	524720	359072
204	415072	274720
208	431968	316624
212	421392	295824
216	522576	357472
220	512144	351312
224	438560	240832
228	318448	202560
232	405696	275952
236	468720	247664
240	329984	199088
244	239456	160240
248	233744	151280
252	368832	253008
256	443776	328768
264	366496	270768
272	345264	234144
280	340304	229648
288	352016	239568
296	341072	246640
304	259344	190928
312	198992	148368
320	211296	149088
328	219408	160144
336	199904	146592
344	299840	197232
352	315840	205680
360	174768	126928
368	140016	105680
376	142992	109424
384	131616	97136
392	128656	99328
400	138608	102768
408	111168	80112
416	90000	65968
424	87392	61792
432	100016	72960
440	108800	80544
448	112752	87456
456	99152	77648
464	90544	70448
472	84064	65440
480	81488	63952
488	80240	65952
496	78864	63552
504	84672	67968
512	168864	132368
528	169456	139664
544	190704	161776
560	156480	123872
576	122240	96480
592	100240	80336
608	100768	78912
624	90864	70032
640	87408	67248
656	77488	57440
672	75312	50544
688	78688	57616
704	77776	59376
720	84704	61712
736	74848	54240
752	74256	54848
768	73040	54080
784	64784	45840
800	61920	47328
816	53376	40976
832	62352	47408
848	63776	49984
864	65520	52928
880	56064	43520
896	53040	40320
912	50768	40432
928	51072	40624
944	52656	41904
960	57248	43616
976	54320	41056
992	59872	45904
1008	56448	43408
1024	117792	96112
1056	122160	101232
1088	98576	78656
1120	87440	73152
1152	85744	70064
1184	71712	56128
1216	74560	58368
1248	78880	61152
1280	81920	66768
1312	71056	56144
1344	65280	49504
1376	65632	51056
1408	62752	49440
1440	84704	68624
1472	96688	77392
1504	72656	56576
1536	82864	67664
1568	91984	77440
1600	69872	58384
1632	88944	76928
1664	68144	57232
1696	49920	38800
1728	46960	35392
1760	41488	30608
1792	41712	31648
1824	44608	35312
1856	44672	34960
1888	41280	32976
1920	42192	34016
1952	44064	34784
1984	43648	33360
2016	38144	30048
2048	80016	63312
2112	68816	52576
2176	72352	56560
2240	69536	54912
2304	57536	45056
2368	52736	41616
2432	62240	49424
2496	59952	46240
2560	65632	51680
2624	60688	47200
2688	59648	48784
2752	66752	54752
2816	75456	62592
2880	80208	66144
2944	58656	48384
3008	55648	44432
3072	49248	40176
3136	40928	32672
3200	40096	32688
3264	43808	35952
3328	42160	34720
3392	39840	33040
3456	45472	38480
3520	52880	44896
3584	59296	50544
3648	44432	36256
3712	40160	32512
3776	53136	45232
3840	44096	36320
3904	35440	28608
3968	37328	30496
4032	29328	23696
4096	60288	49440
4224	60880	51120
4352	55264	44800
4480	55888	46400
4608	57456	46464
4736	46320	38560
4864	40848	33632
4992	46576	38064
5120	40736	33616
5248	41696	34544
5376	41312	34528
5504	40992	34544
5632	41488	35680
5760	45488	39696
5888	48976	41856
6016	50320	43728
6144	42352	36704
6272	44176	39152
6400	31104	26128
6528	31808	27280
6656	34848	29744
6784	32112	27392
6912	27104	22976
7040	29840	25728
7168	28368	24160
7296	35152	30464
7424	37072	31664
7552	31472	25792
7680	30896	25936
7808	34224	29136
7936	28736	24480
8064	29408	25328
8192	57728	50992
8448	53616	47104
8704	60496	53632
8960	67472	59840
9216	58784	52640
9472	49792	43712
9728	52016	45408
9984	47616	42816
10240	47344	41584
10496	43088	37728
10752	32832	28096
11008	29712	25168
11264	32656	27792
11520	38240	32688
11776	30160	25936
12032	32016	27392
12288	38096	34064
12544	55216	50288
12800	65744	60880
13056	37280	33504
13312	28096	24384
13568	29952	26160
13824	31408	27344
14080	38768	34192
14336	26432	23248
14592	31248	28096
14848	52096	48384
15104	35376	32064
15360	30128	26736
15616	26624	24416
15872	24208	21984
16128	25360	22960
16384	83104	76592
16896	111248	104544
17408	53856	49168
17920	40160	36592
18432	46224	41248
18944	61152	57344
19456	62176	57040
19968	50656	46080
20480	56784	52176
20992	47264	42848
21504	39424	36080
22016	43104	39584
22528	30192	27232
23040	38928	35680
23552	37248	34000
24064	26208	23920
24576	21056	18768
25088	22176	19824
25600	23456	20880
26112	20576	18272
26624	21136	18944
27136	24800	22272
27648	20672	18672
28160	15504	13920
28672	16528	14784
29184	15248	13472
29696	14880	13552
30208	13664	12256
30720	17920	16160
31232	17600	15296
31744	23392	21504
32256	18992	17520
32768	36944	33136
33792	32432	29504
34816	34400	30096
35840	25168	22816
36864	44960	38656
37888	24912	22272
38912	24896	22368
39936	25376	21552
40960	17936	15888
41984	16784	14864
43008	18656	16752
44032	17792	15904
45056	13840	12784
46080	14704	13088
47104	10944	9888
48128	11344	10112
49152	12768	11600
50176	17200	15824
51200	20176	18544
52224	16896	15408
53248	19216	18320
54272	12480	11488
55296	10928	9728
56320	9952	8880
57344	20384	18944
58368	13952	12752
59392	12016	10976
60416	10192	9328
61440	14400	13472
62464	9952	9344
63488	9984	9328
64512	6560	5584
65536	14640	12832
67584	18560	17264
69632	29760	28368
71680	15776	14064
73728	15344	13968
75776	17840	16128
77824	14224	13072
79872	18144	16176
81920	19344	17488
83968	11280	10288
86016	16720	15392
88064	13200	11984
90112	12592	11440
92160	11344	10304
94208	12640	11440
96256	9392	8352
98304	11520	10496
100352	9840	8576
102400	12032	10880
104448	12960	11728
106496	7696	6992
108544	6832	6128
110592	6464	5824
112640	6032	5424
114688	6000	5248
116736	9616	8752
118784	8256	7552
120832	7024	6208
122880	8592	7904
124928	19328	18352
126976	8432	7840
129024	5360	4800
131072	11360	10352
135168	13312	11776
139264	12400	11536
143360	9024	8000
147456	11888	10640
151552	10464	9360
155648	9408	8496
159744	7408	6608
163840	5808	5120
167936	8288	7376
172032	8096	7136
176128	13600	12544
180224	8864	8048
184320	7488	6640
188416	7680	6992
192512	16048	15216
196608	5904	5360
200704	7856	6832
204800	11696	11056
208896	7296	6608
212992	7200	6592
217088	7904	6896
221184	6656	6016
225280	5072	4288
229376	5312	4672
233472	5920	5280
237568	7392	6832
241664	8176	7296
245760	6304	5616
249856	7024	6368
253952	5584	5072
258048	4944	4656
262144	10944	9504
270336	11920	10864
278528	10400	9360
286720	9680	8720
294912	13776	12864
303104	19136	17760
311296	17392	15632
319488	6208	5392
327680	7024	6288
335872	5808	5328
344064	6032	5472
352256	6096	5232
360448	5120	4688
368640	4272	3792
376832	3888	3488
385024	4928	4400
393216	5168	4480
401408	4608	3888
409600	3696	3328
417792	5328	4784
425984	4800	4416
434176	3056	2784
442368	3008	2576
450560	3088	2784
458752	3664	3120
466944	3328	2960
475136	3488	3120
483328	2704	2304
491520	2720	2256
499712	2368	2144
507904	4288	3680
516096	2592	2256
524288	5824	5344
540672	5216	4704
557056	5456	4896
573440	6224	5680
589824	4688	4384
606208	5056	4480
622592	3808	3520
638976	4928	4320
655360	4016	3568
671744	3456	2992
688128	3776	3296
704512	3792	3424
720896	3488	3056
737280	2608	2208
753664	3120	2736
770048	3008	2784
786432	2832	2544
802816	2912	2528
819200	3104	2736
835584	2512	2192
851968	2480	2016
868352	2272	1856
884736	2944	2432
901120	2000	1568
917504	1856	1664
933888	2112	1712
950272	2320	1904
966656	1840	1632
983040	1760	1520
999424	2128	1808
1015808	2128	1824
1032192	2128	1920
1048576	3856	3392
1081344	4224	3696
1114112	3424	2832
1146880	4720	4176
1179648	2752	2464
1212416	2560	2096
1245184	2832	2384
1277952	3168	2816
1310720	3616	2784
1343488	2640	2208
1376256	5152	4368
1409024	2960	2528
1441792	2192	1824
1474560	3760	3232
1507328	3536	3024
1540096	3664	3264
1572864	2592	2112
1605632	1888	1616
1638400	2768	2368
1671168	1728	1584
1703936	2640	2416
1736704	2368	1888
1769472	3216	2656
1802240	3088	2624
1835008	2608	2464
1867776	2208	1936
1900544	1360	1104
1933312	4272	3824
1966080	2144	1792
1998848	3472	3104
2031616	2592	2384
2064384	1840	1632
2097152	3872	3488
2162688	4496	3888
2228224	6672	5824
2293760	4112	3600
2359296	2752	2416
2424832	2512	2032
2490368	2656	2368
2555904	2832	2608
2621440	2400	2208
2686976	2352	1712
2752512	3040	2736
2818048	1696	1488
2883584	1520	1328
2949120	3680	3312
3014656	2752	2464
3080192	2288	1920
3145728	1664	1344
3211264	4368	3600
3276800	2080	1760
3342336	1104	1008
3407872	640	576
3473408	1152	976
3538944	2320	2160
3604480	1408	1344
3670016	928	816
3735552	896	816
3801088	2176	2016
3866624	1040	800
3932160	864	688
3997696	448	384
4063232	576	480
4128768	784	608
4194304	2368	2192
4325376	1376	1184
4456448	1344	1104
4587520	3824	3216
4718592	1184	1056
4849664	2096	1760
4980736	2080	1968
5111808	3104	2800
5242880	1120	976
5373952	4256	3728
5505024	640	592
5636096	880	768
5767168	976	896
5898240	480	352
6029312	880	784
6160384	1632	1520
6291456	1648	1600
6422528	1440	1152
6553600	656	592
6684672	1504	1376
6815744	1552	1472
6946816	1648	1536
7077888	288	240
7208960	528	480
7340032	720	608
7471104	144	96
7602176	656	544
7733248	384	320
7864320	496	464
7995392	832	752
8126464	208	176
8257536	176	176
8388608	720	624
8650752	528	432
8912896	1168	1008
9175040	896	736
9437184	1264	1184
9699328	928	800
9961472	896	704
10223616	784	608
10485760	1024	800
10747904	2192	2016
11010048	1280	1104
11272192	1504	1328
11534336	1360	1120
11796480	1136	1008
12058624	1280	1136
12320768	2048	1680
12582912	896	800
12845056	992	912
13107200	1440	1248
13369344	1488	1360
13631488	1040	896
13893632	704	608
14155776	2112	2016
14417920	2384	2256
14680064	2048	1776
14942208	1552	1456
15204352	1840	1696
15466496	2912	2656
15728640	2896	2656
15990784	10944	10640
16252928	13088	12528
16515072	24816	23328
16777216	64832	62928
17301504	19168	18672
17825792	17664	16960
18350080	4256	3728
18874368	4272	3808
19398656	2336	2160
19922944	3632	3312
20447232	1840	1696
20971520	1584	1504
21495808	1968	1584
22020096	3408	3072
22544384	1408	1312
23068672	1088	912
23592960	11520	11152
24117248	3648	3408
24641536	2480	2304
25165824	11600	10480
25690112	32208	31328
26214400	22288	21216
26738688	11232	10464
27262976	26816	26208
27787264	4128	3744
28311552	7328	6288
28835840	1728	1632
29360128	2032	1808
29884416	1184	1120
30408704	2048	1920
30932992	1744	1664
31457280	2112	2000
31981568	912	896
32505856	1504	1360
33030144	5088	4800
33554432	9600	8544
34603008	19184	18544
35651584	6608	6400
36700160	4256	4096
37748736	5728	5360
38797312	4736	4608
39845888	5424	4992
40894464	17984	16608
41943040	13344	13024
42991616	6384	6208
44040192	3968	3600
45088768	5968	5760
46137344	1904	1856
47185920	17984	17648
48234496	3168	2640
49283072	2752	2528
50331648	9232	8480
51380224	3568	3360
52428800	2048	1904
53477376	3072	2896
54525952	2256	2192
55574528	3424	3264
56623104	4000	3520
57671680	3968	3680
58720256	4688	4320
59768832	16400	16112
60817408	11744	11056
61865984	17008	16672
62914560	928	864
63963136	768	720
65011712	848	816
66060288	1216	1136
67108864	1184	1136
69206016	2192	2112
71303168	1632	1552
73400320	2688	2544
75497472	2240	2096
77594624	6944	6608
79691776	4384	3856
81788928	2432	2384
83886080	1312	1248
85983232	1440	1328
88080384	864	864
90177536	1248	1184
92274688	800	720
94371840	1168	1120
96468992	1040	992
98566144	1392	1280
100663296	752	736
102760448	1200	1136
104857600	272	192
106954752	1488	1424
109051904	384	336
111149056	1760	1424
113246208	1280	1168
115343360	2048	1984
117440512	368	368
119537664	672	672
121634816	528	496
123731968	544	512
125829120	688	672
127926272	1312	1200
130023424	2576	2528
132120576	1824	1648
134217728	4992	4416
138412032	25776	24880
142606336	28144	26512
146800640	2688	2448
150994944	16	0
155189248	0	0
159383552	80	0
163577856	560	496
167772160	2368	1872
171966464	1472	1136
176160768	992	608
180355072	16	16
184549376	64	32
188743680	416	416
192937984	176	160
197132288	320	304
201326592	176	112
205520896	0	0
209715200	16	16
213909504	96	64
218103808	432	96
222298112	0	0
226492416	0	0
230686720	0	0
234881024	0	0
239075328	0	0
243269632	16	16
247463936	0	0
251658240	0	0
255852544	0	0
260046848	0	0
264241152	0	0
268435456	672	240
276824064	0	0
285212672	16	16
293601280	0	0
301989888	0	0
310378496	32	16
318767104	0	0
327155712	80	0
335544320	0	0
343932928	16	16
352321536	0	0
360710144	0	0
369098752	0	0
377487360	0	0
385875968	0	0
394264576	0	0
402653184	0	0
411041792	0	0
419430400	0	0
427819008	32	32
436207616	0	0
444596224	0	0
452984832	0	0
461373440	0	0
469762048	0	0
478150656	0	0
486539264	0	0
494927872	0	0
503316480	0	0
511705088	0	0
520093696	0	0
528482304	0	0
536870912	0	0
553648128	0	0
570425344	0	0
587202560	0	0
603979776	0	0
620756992	0	0
637534208	0	0
654311424	0	0
671088640	0	0
687865856	0	0
704643072	0	0
721420288	0	0
738197504	0	0
754974720	0	0
771751936	0	0
788529152	0	0
805306368	0	0
822083584	0	0
838860800	0	0
855638016	0	0
872415232	0	0
889192448	0	0
905969664	0	0
922746880	0	0
939524096	0	0
956301312	0	0
973078528	0	0
989855744	0	0
1006632960	0	0
1023410176	0	0
1040187392	0	0
1056964608	0	0
1073741824	0	0
1107296256	0	0
1140850688	0	0
1174405120	0	0
1207959552	0	0
1241513984	0	0
1275068416	0	0
1308622848	0	0
1342177280	0	0
1375731712	0	0
1409286144	0	0
1442840576	0	0
1476395008	0	0
1509949440	0	0
1543503872	0	0
1577058304	0	0
1610612736	0	0
1644167168	0	0
1677721600	0	0
1711276032	0	0
1744830464	0	0
1778384896	0	0
1811939328	0	0
1845493760	0	0
1879048192	0	0
1912602624	0	0
1946157056	0	0
1979711488	0	0
2013265920	0	0
2046820352	0	0
2080374784	0	0
2113929216	0	0
2147483648	0	0
2214592512	0	0
2281701376	0	0
2348810240	0	0
2415919104	0	0
2483027968	0	0
2550136832	0	0
2617245696	0	0
2684354560	0	0
2751463424	0	0
2818572288	0	0
2885681152	0	0
2952790016	0	0
3019898880	0	0
3087007744	0	0
3154116608	0	0
3221225472	0	0
3288334336	0	0
3355443200	0	0
3422552064	0	0
3489660928	0	0
3556769792	0	0
3623878656	0	0
3690987520	0	0
3758096384	0	0
3825205248	0	0
3892314112	0	0
3959422976	0	0
4026531840	0	0
4093640704	0	0
4160749568	0	0
4227858432	0	0
~~~~~~~~~~Reuse Distance Profiler output end~~~~~~~~~~

DRAM Statistics
 CHANNEL 0
 RQ ROW_BUFFER_HIT:     128134  ROW_BUFFER_MISS:     726417
 DBUS AVG_CONGESTED_CYCLE:    3.84842
 WQ ROW_BUFFER_HIT:      89771  ROW_BUFFER_MISS:      59308  FULL:          0


CPU 0 Branch Prediction Accuracy: 93.8645% MPKI: 12.711 Average ROB Occupancy at Mispredict: 44.6257
Branch type MPKI
BRANCH_DIRECT_JUMP: 0.001276
BRANCH_INDIRECT: 0.348501
BRANCH_CONDITIONAL: 11.9803
BRANCH_DIRECT_CALL: 0.001614
BRANCH_INDIRECT_CALL: 0.373948
BRANCH_RETURN: 0.005412

