
*** ChampSim Multicore Out-of-Order Simulator ***

Warmup Instructions: 500000000
Simulation Instructions: 1500000000
Number of CPUs: 1
Off-chip DRAM Size: 4 GiB Channels: 1 Width: 64-bit Data Rate: 3200 MT/s

VirtualMemory physical capacity: 8588881920 num_ppages: 2096895
VirtualMemory page size: 4096 log2_page_size: 12

CPU 0 runs traces/401.bzip2-7B.champsimtrace.xz
CPU 0 Bimodal branch predictor
Basic BTB sets: 1024 ways: 8 indirect buffer size: 4096 RAS size: 64
Initializing LRU.
Initializing LRU.
Initializing LRU.
Initializing LRU.
Initializing rdLRU.
Initializing LRU.
Initializing LRU.
Heartbeat CPU 0 instructions: 10000000 cycles: 2993460 heartbeat IPC: 3.34062 cumulative IPC: 3.34062 (Simulation time: 0 hr 0 min 41 sec) 
Heartbeat CPU 0 instructions: 20000003 cycles: 5799704 heartbeat IPC: 3.56348 cumulative IPC: 3.44845 (Simulation time: 0 hr 1 min 19 sec) 
Heartbeat CPU 0 instructions: 30000000 cycles: 8389954 heartbeat IPC: 3.86063 cumulative IPC: 3.57571 (Simulation time: 0 hr 1 min 52 sec) 
Heartbeat CPU 0 instructions: 40000000 cycles: 11326795 heartbeat IPC: 3.40502 cumulative IPC: 3.53145 (Simulation time: 0 hr 2 min 33 sec) 
Heartbeat CPU 0 instructions: 50000001 cycles: 14455355 heartbeat IPC: 3.19636 cumulative IPC: 3.45893 (Simulation time: 0 hr 3 min 16 sec) 
Heartbeat CPU 0 instructions: 60000004 cycles: 17476750 heartbeat IPC: 3.30973 cumulative IPC: 3.43313 (Simulation time: 0 hr 3 min 59 sec) 
Heartbeat CPU 0 instructions: 70000001 cycles: 20356049 heartbeat IPC: 3.47307 cumulative IPC: 3.43878 (Simulation time: 0 hr 4 min 38 sec) 
Heartbeat CPU 0 instructions: 80000004 cycles: 23376275 heartbeat IPC: 3.31101 cumulative IPC: 3.42227 (Simulation time: 0 hr 5 min 17 sec) 
Heartbeat CPU 0 instructions: 90000002 cycles: 26994914 heartbeat IPC: 2.76347 cumulative IPC: 3.33396 (Simulation time: 0 hr 6 min 7 sec) 
Heartbeat CPU 0 instructions: 100000000 cycles: 30120594 heartbeat IPC: 3.1993 cumulative IPC: 3.31999 (Simulation time: 0 hr 6 min 50 sec) 
Heartbeat CPU 0 instructions: 110000001 cycles: 33145257 heartbeat IPC: 3.30615 cumulative IPC: 3.31873 (Simulation time: 0 hr 7 min 31 sec) 
Heartbeat CPU 0 instructions: 120000002 cycles: 35754495 heartbeat IPC: 3.83254 cumulative IPC: 3.35622 (Simulation time: 0 hr 8 min 2 sec) 
Heartbeat CPU 0 instructions: 130000002 cycles: 38544609 heartbeat IPC: 3.58408 cumulative IPC: 3.37272 (Simulation time: 0 hr 8 min 38 sec) 
Heartbeat CPU 0 instructions: 140000003 cycles: 41684725 heartbeat IPC: 3.1846 cumulative IPC: 3.35854 (Simulation time: 0 hr 9 min 20 sec) 
Heartbeat CPU 0 instructions: 150000004 cycles: 45046038 heartbeat IPC: 2.97503 cumulative IPC: 3.32993 (Simulation time: 0 hr 10 min 6 sec) 
Heartbeat CPU 0 instructions: 160000001 cycles: 47829250 heartbeat IPC: 3.59297 cumulative IPC: 3.34523 (Simulation time: 0 hr 10 min 43 sec) 
Heartbeat CPU 0 instructions: 170000002 cycles: 50775437 heartbeat IPC: 3.39422 cumulative IPC: 3.34808 (Simulation time: 0 hr 11 min 14 sec) 
Heartbeat CPU 0 instructions: 180000000 cycles: 53291611 heartbeat IPC: 3.97429 cumulative IPC: 3.37764 (Simulation time: 0 hr 11 min 39 sec) 
Heartbeat CPU 0 instructions: 190000001 cycles: 56345720 heartbeat IPC: 3.27428 cumulative IPC: 3.37204 (Simulation time: 0 hr 12 min 20 sec) 
Heartbeat CPU 0 instructions: 200000003 cycles: 59409292 heartbeat IPC: 3.26416 cumulative IPC: 3.36648 (Simulation time: 0 hr 12 min 59 sec) 
Heartbeat CPU 0 instructions: 210000002 cycles: 61992706 heartbeat IPC: 3.87085 cumulative IPC: 3.3875 (Simulation time: 0 hr 13 min 32 sec) 
Heartbeat CPU 0 instructions: 220000002 cycles: 64511510 heartbeat IPC: 3.97014 cumulative IPC: 3.41024 (Simulation time: 0 hr 14 min 4 sec) 
Heartbeat CPU 0 instructions: 230000002 cycles: 67047701 heartbeat IPC: 3.94292 cumulative IPC: 3.43039 (Simulation time: 0 hr 14 min 35 sec) 
Heartbeat CPU 0 instructions: 240000002 cycles: 69727975 heartbeat IPC: 3.73096 cumulative IPC: 3.44195 (Simulation time: 0 hr 15 min 9 sec) 
Heartbeat CPU 0 instructions: 250000003 cycles: 72824799 heartbeat IPC: 3.22912 cumulative IPC: 3.4329 (Simulation time: 0 hr 15 min 52 sec) 
Heartbeat CPU 0 instructions: 260000002 cycles: 75872151 heartbeat IPC: 3.28154 cumulative IPC: 3.42682 (Simulation time: 0 hr 16 min 33 sec) 
Heartbeat CPU 0 instructions: 270000001 cycles: 79018339 heartbeat IPC: 3.17845 cumulative IPC: 3.41693 (Simulation time: 0 hr 17 min 16 sec) 
Heartbeat CPU 0 instructions: 280000001 cycles: 81747156 heartbeat IPC: 3.66459 cumulative IPC: 3.4252 (Simulation time: 0 hr 17 min 52 sec) 
Heartbeat CPU 0 instructions: 290000002 cycles: 84346301 heartbeat IPC: 3.84742 cumulative IPC: 3.43821 (Simulation time: 0 hr 18 min 25 sec) 
Heartbeat CPU 0 instructions: 300000004 cycles: 87031490 heartbeat IPC: 3.72413 cumulative IPC: 3.44703 (Simulation time: 0 hr 19 min 0 sec) 
Heartbeat CPU 0 instructions: 310000000 cycles: 90504584 heartbeat IPC: 2.87928 cumulative IPC: 3.42524 (Simulation time: 0 hr 19 min 50 sec) 
Heartbeat CPU 0 instructions: 320000002 cycles: 93524627 heartbeat IPC: 3.31121 cumulative IPC: 3.42156 (Simulation time: 0 hr 20 min 33 sec) 
Heartbeat CPU 0 instructions: 330000000 cycles: 96525122 heartbeat IPC: 3.33278 cumulative IPC: 3.4188 (Simulation time: 0 hr 21 min 14 sec) 
Heartbeat CPU 0 instructions: 340000001 cycles: 99450707 heartbeat IPC: 3.41812 cumulative IPC: 3.41878 (Simulation time: 0 hr 21 min 53 sec) 
Heartbeat CPU 0 instructions: 350000003 cycles: 103186662 heartbeat IPC: 2.67669 cumulative IPC: 3.39191 (Simulation time: 0 hr 22 min 46 sec) 
Heartbeat CPU 0 instructions: 360000000 cycles: 106684208 heartbeat IPC: 2.85915 cumulative IPC: 3.37444 (Simulation time: 0 hr 23 min 33 sec) 
Heartbeat CPU 0 instructions: 370000000 cycles: 109253619 heartbeat IPC: 3.89194 cumulative IPC: 3.38662 (Simulation time: 0 hr 24 min 5 sec) 
Heartbeat CPU 0 instructions: 380000003 cycles: 112464549 heartbeat IPC: 3.11436 cumulative IPC: 3.37884 (Simulation time: 0 hr 24 min 51 sec) 
Heartbeat CPU 0 instructions: 390000001 cycles: 116163278 heartbeat IPC: 2.70363 cumulative IPC: 3.35734 (Simulation time: 0 hr 25 min 43 sec) 
Heartbeat CPU 0 instructions: 400000002 cycles: 119302722 heartbeat IPC: 3.18528 cumulative IPC: 3.35282 (Simulation time: 0 hr 26 min 26 sec) 
Heartbeat CPU 0 instructions: 410000003 cycles: 123043068 heartbeat IPC: 2.67355 cumulative IPC: 3.33217 (Simulation time: 0 hr 27 min 19 sec) 
Heartbeat CPU 0 instructions: 420000000 cycles: 126569884 heartbeat IPC: 2.83542 cumulative IPC: 3.31832 (Simulation time: 0 hr 28 min 8 sec) 
Heartbeat CPU 0 instructions: 430000003 cycles: 129356151 heartbeat IPC: 3.58903 cumulative IPC: 3.32416 (Simulation time: 0 hr 28 min 33 sec) 
Heartbeat CPU 0 instructions: 440000002 cycles: 132017447 heartbeat IPC: 3.75757 cumulative IPC: 3.33289 (Simulation time: 0 hr 29 min 0 sec) 
Heartbeat CPU 0 instructions: 450000004 cycles: 135344879 heartbeat IPC: 3.00532 cumulative IPC: 3.32484 (Simulation time: 0 hr 29 min 50 sec) 
Heartbeat CPU 0 instructions: 460000001 cycles: 137950868 heartbeat IPC: 3.83731 cumulative IPC: 3.33452 (Simulation time: 0 hr 30 min 20 sec) 
Heartbeat CPU 0 instructions: 470000001 cycles: 140469648 heartbeat IPC: 3.97018 cumulative IPC: 3.34592 (Simulation time: 0 hr 30 min 52 sec) 
Heartbeat CPU 0 instructions: 480000002 cycles: 143011302 heartbeat IPC: 3.93445 cumulative IPC: 3.35638 (Simulation time: 0 hr 31 min 24 sec) 
Heartbeat CPU 0 instructions: 490000004 cycles: 145567221 heartbeat IPC: 3.91249 cumulative IPC: 3.36614 (Simulation time: 0 hr 31 min 55 sec) 
Heartbeat CPU 0 instructions: 500000000 cycles: 148315800 heartbeat IPC: 3.63824 cumulative IPC: 3.37119 (Simulation time: 0 hr 32 min 32 sec) 

Warmup complete CPU 0 instructions: 500000004 cycles: 148315801 (Simulation time: 0 hr 32 min 32 sec) 

Heartbeat CPU 0 instructions: 510000002 cycles: 155114392 heartbeat IPC: 1.47089 cumulative IPC: 1.47089 (Simulation time: 0 hr 33 min 15 sec) 
Heartbeat CPU 0 instructions: 520000004 cycles: 162027603 heartbeat IPC: 1.44651 cumulative IPC: 1.4586 (Simulation time: 0 hr 33 min 53 sec) 
Heartbeat CPU 0 instructions: 530000001 cycles: 168874581 heartbeat IPC: 1.4605 cumulative IPC: 1.45923 (Simulation time: 0 hr 34 min 33 sec) 
Heartbeat CPU 0 instructions: 540000000 cycles: 176121277 heartbeat IPC: 1.37994 cumulative IPC: 1.43857 (Simulation time: 0 hr 35 min 10 sec) 
Heartbeat CPU 0 instructions: 550000004 cycles: 182863989 heartbeat IPC: 1.48308 cumulative IPC: 1.44725 (Simulation time: 0 hr 35 min 48 sec) 
Heartbeat CPU 0 instructions: 560000000 cycles: 188812784 heartbeat IPC: 1.68101 cumulative IPC: 1.48159 (Simulation time: 0 hr 36 min 29 sec) 
Heartbeat CPU 0 instructions: 570000000 cycles: 195131438 heartbeat IPC: 1.58262 cumulative IPC: 1.49523 (Simulation time: 0 hr 37 min 6 sec) 
Heartbeat CPU 0 instructions: 580000001 cycles: 200253598 heartbeat IPC: 1.9523 cumulative IPC: 1.5403 (Simulation time: 0 hr 37 min 47 sec) 
Heartbeat CPU 0 instructions: 590000002 cycles: 206425215 heartbeat IPC: 1.62032 cumulative IPC: 1.5488 (Simulation time: 0 hr 38 min 30 sec) 
Heartbeat CPU 0 instructions: 600000000 cycles: 212838548 heartbeat IPC: 1.55925 cumulative IPC: 1.54984 (Simulation time: 0 hr 39 min 5 sec) 
Heartbeat CPU 0 instructions: 610000003 cycles: 218312147 heartbeat IPC: 1.82695 cumulative IPC: 1.57151 (Simulation time: 0 hr 39 min 46 sec) 
Heartbeat CPU 0 instructions: 620000002 cycles: 224736019 heartbeat IPC: 1.55669 cumulative IPC: 1.57027 (Simulation time: 0 hr 40 min 30 sec) 
Heartbeat CPU 0 instructions: 630000001 cycles: 230343528 heartbeat IPC: 1.78332 cumulative IPC: 1.58483 (Simulation time: 0 hr 41 min 9 sec) 
Heartbeat CPU 0 instructions: 640000003 cycles: 237203606 heartbeat IPC: 1.45771 cumulative IPC: 1.57502 (Simulation time: 0 hr 41 min 47 sec) 
Heartbeat CPU 0 instructions: 650000002 cycles: 243920353 heartbeat IPC: 1.48882 cumulative IPC: 1.56896 (Simulation time: 0 hr 42 min 22 sec) 
Heartbeat CPU 0 instructions: 660000001 cycles: 251068559 heartbeat IPC: 1.39895 cumulative IPC: 1.55714 (Simulation time: 0 hr 43 min 15 sec) 
Heartbeat CPU 0 instructions: 670000000 cycles: 257657465 heartbeat IPC: 1.5177 cumulative IPC: 1.55476 (Simulation time: 0 hr 43 min 50 sec) 
Heartbeat CPU 0 instructions: 680000000 cycles: 267287813 heartbeat IPC: 1.03838 cumulative IPC: 1.51296 (Simulation time: 0 hr 45 min 2 sec) 
Heartbeat CPU 0 instructions: 690000003 cycles: 275320321 heartbeat IPC: 1.24494 cumulative IPC: 1.49601 (Simulation time: 0 hr 45 min 52 sec) 
Heartbeat CPU 0 instructions: 700000001 cycles: 281138660 heartbeat IPC: 1.7187 cumulative IPC: 1.50576 (Simulation time: 0 hr 46 min 43 sec) 
Heartbeat CPU 0 instructions: 710000004 cycles: 286908636 heartbeat IPC: 1.73311 cumulative IPC: 1.51523 (Simulation time: 0 hr 47 min 34 sec) 
Heartbeat CPU 0 instructions: 720000004 cycles: 291458566 heartbeat IPC: 2.19784 cumulative IPC: 1.53693 (Simulation time: 0 hr 48 min 20 sec) 
Heartbeat CPU 0 instructions: 730000003 cycles: 298590897 heartbeat IPC: 1.40207 cumulative IPC: 1.53053 (Simulation time: 0 hr 49 min 10 sec) 
Heartbeat CPU 0 instructions: 740000001 cycles: 305048585 heartbeat IPC: 1.54854 cumulative IPC: 1.53127 (Simulation time: 0 hr 50 min 7 sec) 
Heartbeat CPU 0 instructions: 750000001 cycles: 311423576 heartbeat IPC: 1.56863 cumulative IPC: 1.53273 (Simulation time: 0 hr 50 min 49 sec) 
Heartbeat CPU 0 instructions: 760000000 cycles: 317711514 heartbeat IPC: 1.59035 cumulative IPC: 1.53487 (Simulation time: 0 hr 51 min 29 sec) 
Heartbeat CPU 0 instructions: 770000001 cycles: 323982887 heartbeat IPC: 1.59455 cumulative IPC: 1.537 (Simulation time: 0 hr 52 min 7 sec) 
Heartbeat CPU 0 instructions: 780000004 cycles: 330758475 heartbeat IPC: 1.47589 cumulative IPC: 1.53473 (Simulation time: 0 hr 52 min 47 sec) 
Heartbeat CPU 0 instructions: 790000000 cycles: 337558574 heartbeat IPC: 1.47057 cumulative IPC: 1.53242 (Simulation time: 0 hr 53 min 29 sec) 
Heartbeat CPU 0 instructions: 800000000 cycles: 345133335 heartbeat IPC: 1.32017 cumulative IPC: 1.52425 (Simulation time: 0 hr 54 min 8 sec) 
Heartbeat CPU 0 instructions: 810000000 cycles: 351779956 heartbeat IPC: 1.50452 cumulative IPC: 1.52361 (Simulation time: 0 hr 54 min 48 sec) 
Heartbeat CPU 0 instructions: 820000000 cycles: 357843854 heartbeat IPC: 1.6491 cumulative IPC: 1.52724 (Simulation time: 0 hr 55 min 30 sec) 
Heartbeat CPU 0 instructions: 830000000 cycles: 366012267 heartbeat IPC: 1.22423 cumulative IPC: 1.51587 (Simulation time: 0 hr 56 min 6 sec) 
Heartbeat CPU 0 instructions: 840000001 cycles: 371777001 heartbeat IPC: 1.73469 cumulative IPC: 1.52152 (Simulation time: 0 hr 56 min 48 sec) 
Heartbeat CPU 0 instructions: 850000000 cycles: 377865904 heartbeat IPC: 1.64233 cumulative IPC: 1.52472 (Simulation time: 0 hr 57 min 30 sec) 
Heartbeat CPU 0 instructions: 860000003 cycles: 383952855 heartbeat IPC: 1.64286 cumulative IPC: 1.52777 (Simulation time: 0 hr 58 min 10 sec) 
Heartbeat CPU 0 instructions: 870000001 cycles: 390041031 heartbeat IPC: 1.64253 cumulative IPC: 1.53066 (Simulation time: 0 hr 58 min 52 sec) 
Heartbeat CPU 0 instructions: 880000001 cycles: 396549020 heartbeat IPC: 1.53657 cumulative IPC: 1.53082 (Simulation time: 0 hr 59 min 32 sec) 
Heartbeat CPU 0 instructions: 890000000 cycles: 404182178 heartbeat IPC: 1.31007 cumulative IPC: 1.52423 (Simulation time: 1 hr 0 min 10 sec) 
Heartbeat CPU 0 instructions: 900000003 cycles: 410958776 heartbeat IPC: 1.47567 cumulative IPC: 1.52298 (Simulation time: 1 hr 0 min 47 sec) 
Heartbeat CPU 0 instructions: 910000000 cycles: 417233949 heartbeat IPC: 1.59358 cumulative IPC: 1.52463 (Simulation time: 1 hr 1 min 35 sec) 
Heartbeat CPU 0 instructions: 920000000 cycles: 424119280 heartbeat IPC: 1.45236 cumulative IPC: 1.52282 (Simulation time: 1 hr 2 min 13 sec) 
Heartbeat CPU 0 instructions: 930000000 cycles: 430161197 heartbeat IPC: 1.6551 cumulative IPC: 1.52566 (Simulation time: 1 hr 2 min 55 sec) 
Heartbeat CPU 0 instructions: 940000004 cycles: 436692502 heartbeat IPC: 1.53109 cumulative IPC: 1.52578 (Simulation time: 1 hr 3 min 34 sec) 
Heartbeat CPU 0 instructions: 950000001 cycles: 443269309 heartbeat IPC: 1.52049 cumulative IPC: 1.52566 (Simulation time: 1 hr 4 min 10 sec) 
Heartbeat CPU 0 instructions: 960000000 cycles: 449470842 heartbeat IPC: 1.6125 cumulative IPC: 1.52745 (Simulation time: 1 hr 4 min 56 sec) 
Heartbeat CPU 0 instructions: 970000004 cycles: 457969820 heartbeat IPC: 1.17661 cumulative IPC: 1.51782 (Simulation time: 1 hr 5 min 43 sec) 
Heartbeat CPU 0 instructions: 980000001 cycles: 468099070 heartbeat IPC: 0.98724 cumulative IPC: 1.50102 (Simulation time: 1 hr 6 min 54 sec) 
Heartbeat CPU 0 instructions: 990000001 cycles: 474819229 heartbeat IPC: 1.48806 cumulative IPC: 1.50075 (Simulation time: 1 hr 7 min 38 sec) 
Heartbeat CPU 0 instructions: 1000000000 cycles: 480657921 heartbeat IPC: 1.71271 cumulative IPC: 1.50447 (Simulation time: 1 hr 8 min 30 sec) 
Heartbeat CPU 0 instructions: 1010000000 cycles: 485222955 heartbeat IPC: 2.19056 cumulative IPC: 1.51377 (Simulation time: 1 hr 9 min 14 sec) 
Heartbeat CPU 0 instructions: 1020000002 cycles: 491856889 heartbeat IPC: 1.5074 cumulative IPC: 1.51365 (Simulation time: 1 hr 10 min 12 sec) 
Heartbeat CPU 0 instructions: 1030000000 cycles: 497859830 heartbeat IPC: 1.66585 cumulative IPC: 1.51626 (Simulation time: 1 hr 10 min 57 sec) 
Heartbeat CPU 0 instructions: 1040000004 cycles: 504966341 heartbeat IPC: 1.40716 cumulative IPC: 1.51409 (Simulation time: 1 hr 11 min 39 sec) 
Heartbeat CPU 0 instructions: 1050000001 cycles: 511766559 heartbeat IPC: 1.47054 cumulative IPC: 1.51327 (Simulation time: 1 hr 12 min 19 sec) 
Heartbeat CPU 0 instructions: 1060000002 cycles: 517983263 heartbeat IPC: 1.60857 cumulative IPC: 1.51488 (Simulation time: 1 hr 12 min 58 sec) 
Heartbeat CPU 0 instructions: 1070000003 cycles: 523960306 heartbeat IPC: 1.67307 cumulative IPC: 1.51739 (Simulation time: 1 hr 13 min 37 sec) 
Heartbeat CPU 0 instructions: 1080000001 cycles: 531428679 heartbeat IPC: 1.33898 cumulative IPC: 1.51391 (Simulation time: 1 hr 14 min 15 sec) 
Heartbeat CPU 0 instructions: 1090000003 cycles: 538713650 heartbeat IPC: 1.37269 cumulative IPC: 1.51128 (Simulation time: 1 hr 14 min 55 sec) 
Heartbeat CPU 0 instructions: 1100000002 cycles: 545351589 heartbeat IPC: 1.50649 cumulative IPC: 1.5112 (Simulation time: 1 hr 15 min 34 sec) 
Heartbeat CPU 0 instructions: 1110000001 cycles: 551926872 heartbeat IPC: 1.52085 cumulative IPC: 1.51136 (Simulation time: 1 hr 16 min 12 sec) 
Heartbeat CPU 0 instructions: 1120000002 cycles: 558524761 heartbeat IPC: 1.51564 cumulative IPC: 1.51142 (Simulation time: 1 hr 16 min 52 sec) 
Heartbeat CPU 0 instructions: 1130000003 cycles: 564524224 heartbeat IPC: 1.66682 cumulative IPC: 1.51366 (Simulation time: 1 hr 17 min 33 sec) 
Heartbeat CPU 0 instructions: 1140000004 cycles: 570944016 heartbeat IPC: 1.55768 cumulative IPC: 1.51433 (Simulation time: 1 hr 18 min 12 sec) 
Heartbeat CPU 0 instructions: 1150000003 cycles: 577057298 heartbeat IPC: 1.63578 cumulative IPC: 1.51607 (Simulation time: 1 hr 18 min 54 sec) 
Heartbeat CPU 0 instructions: 1160000000 cycles: 583133580 heartbeat IPC: 1.64574 cumulative IPC: 1.51788 (Simulation time: 1 hr 19 min 33 sec) 
Heartbeat CPU 0 instructions: 1170000000 cycles: 589596551 heartbeat IPC: 1.54728 cumulative IPC: 1.51831 (Simulation time: 1 hr 20 min 12 sec) 
Heartbeat CPU 0 instructions: 1180000001 cycles: 596750152 heartbeat IPC: 1.3979 cumulative IPC: 1.51639 (Simulation time: 1 hr 20 min 51 sec) 
Heartbeat CPU 0 instructions: 1190000000 cycles: 604319713 heartbeat IPC: 1.32108 cumulative IPC: 1.51314 (Simulation time: 1 hr 21 min 31 sec) 
Heartbeat CPU 0 instructions: 1200000001 cycles: 610216005 heartbeat IPC: 1.69598 cumulative IPC: 1.51548 (Simulation time: 1 hr 22 min 14 sec) 
Heartbeat CPU 0 instructions: 1210000003 cycles: 616496469 heartbeat IPC: 1.59224 cumulative IPC: 1.51651 (Simulation time: 1 hr 22 min 54 sec) 
Heartbeat CPU 0 instructions: 1220000001 cycles: 623205557 heartbeat IPC: 1.49052 cumulative IPC: 1.51614 (Simulation time: 1 hr 23 min 34 sec) 
Heartbeat CPU 0 instructions: 1230000004 cycles: 629455641 heartbeat IPC: 1.59998 cumulative IPC: 1.51723 (Simulation time: 1 hr 24 min 11 sec) 
Heartbeat CPU 0 instructions: 1240000001 cycles: 635769546 heartbeat IPC: 1.58381 cumulative IPC: 1.51809 (Simulation time: 1 hr 24 min 55 sec) 
Heartbeat CPU 0 instructions: 1250000001 cycles: 643484286 heartbeat IPC: 1.29622 cumulative IPC: 1.51464 (Simulation time: 1 hr 25 min 35 sec) 
Heartbeat CPU 0 instructions: 1260000003 cycles: 652885616 heartbeat IPC: 1.06368 cumulative IPC: 1.50623 (Simulation time: 1 hr 26 min 44 sec) 
Heartbeat CPU 0 instructions: 1270000004 cycles: 660479988 heartbeat IPC: 1.31676 cumulative IPC: 1.50342 (Simulation time: 1 hr 27 min 33 sec) 
Heartbeat CPU 0 instructions: 1280000001 cycles: 666206575 heartbeat IPC: 1.74624 cumulative IPC: 1.50611 (Simulation time: 1 hr 28 min 25 sec) 
Heartbeat CPU 0 instructions: 1290000003 cycles: 672023499 heartbeat IPC: 1.71912 cumulative IPC: 1.50848 (Simulation time: 1 hr 29 min 11 sec) 
Heartbeat CPU 0 instructions: 1300000001 cycles: 677200103 heartbeat IPC: 1.93177 cumulative IPC: 1.51262 (Simulation time: 1 hr 30 min 2 sec) 
Heartbeat CPU 0 instructions: 1310000000 cycles: 684398767 heartbeat IPC: 1.38915 cumulative IPC: 1.51096 (Simulation time: 1 hr 30 min 50 sec) 
Heartbeat CPU 0 instructions: 1320000001 cycles: 689176063 heartbeat IPC: 2.09323 cumulative IPC: 1.5161 (Simulation time: 1 hr 31 min 33 sec) 
Heartbeat CPU 0 instructions: 1330000004 cycles: 694485805 heartbeat IPC: 1.88333 cumulative IPC: 1.51967 (Simulation time: 1 hr 32 min 15 sec) 
Heartbeat CPU 0 instructions: 1340000001 cycles: 700707857 heartbeat IPC: 1.60719 cumulative IPC: 1.52066 (Simulation time: 1 hr 32 min 54 sec) 
Heartbeat CPU 0 instructions: 1350000001 cycles: 706583572 heartbeat IPC: 1.70192 cumulative IPC: 1.52257 (Simulation time: 1 hr 33 min 33 sec) 
Heartbeat CPU 0 instructions: 1360000004 cycles: 711836901 heartbeat IPC: 1.90356 cumulative IPC: 1.52612 (Simulation time: 1 hr 34 min 11 sec) 
Heartbeat CPU 0 instructions: 1370000000 cycles: 716862404 heartbeat IPC: 1.98985 cumulative IPC: 1.53022 (Simulation time: 1 hr 34 min 51 sec) 
Heartbeat CPU 0 instructions: 1380000001 cycles: 723111938 heartbeat IPC: 1.60012 cumulative IPC: 1.53098 (Simulation time: 1 hr 35 min 29 sec) 
Heartbeat CPU 0 instructions: 1390000000 cycles: 729404320 heartbeat IPC: 1.58922 cumulative IPC: 1.53161 (Simulation time: 1 hr 36 min 10 sec) 
Heartbeat CPU 0 instructions: 1400000002 cycles: 734481683 heartbeat IPC: 1.96953 cumulative IPC: 1.5354 (Simulation time: 1 hr 36 min 55 sec) 
Heartbeat CPU 0 instructions: 1410000000 cycles: 739733415 heartbeat IPC: 1.90413 cumulative IPC: 1.53868 (Simulation time: 1 hr 37 min 35 sec) 
Heartbeat CPU 0 instructions: 1420000004 cycles: 745128727 heartbeat IPC: 1.85346 cumulative IPC: 1.54152 (Simulation time: 1 hr 38 min 16 sec) 
Heartbeat CPU 0 instructions: 1430000000 cycles: 750711817 heartbeat IPC: 1.79112 cumulative IPC: 1.54383 (Simulation time: 1 hr 38 min 55 sec) 
Heartbeat CPU 0 instructions: 1440000002 cycles: 756522646 heartbeat IPC: 1.72093 cumulative IPC: 1.54553 (Simulation time: 1 hr 39 min 35 sec) 
Heartbeat CPU 0 instructions: 1450000001 cycles: 762053408 heartbeat IPC: 1.80807 cumulative IPC: 1.54789 (Simulation time: 1 hr 40 min 20 sec) 
Heartbeat CPU 0 instructions: 1460000000 cycles: 767360748 heartbeat IPC: 1.88418 cumulative IPC: 1.55078 (Simulation time: 1 hr 40 min 59 sec) 
Heartbeat CPU 0 instructions: 1470000003 cycles: 773309802 heartbeat IPC: 1.68094 cumulative IPC: 1.55201 (Simulation time: 1 hr 41 min 40 sec) 
Heartbeat CPU 0 instructions: 1480000000 cycles: 779565290 heartbeat IPC: 1.5986 cumulative IPC: 1.55248 (Simulation time: 1 hr 42 min 16 sec) 
Heartbeat CPU 0 instructions: 1490000002 cycles: 786032463 heartbeat IPC: 1.54627 cumulative IPC: 1.55241 (Simulation time: 1 hr 43 min 4 sec) 
Heartbeat CPU 0 instructions: 1500000003 cycles: 791456589 heartbeat IPC: 1.84362 cumulative IPC: 1.55487 (Simulation time: 1 hr 43 min 36 sec) 
Heartbeat CPU 0 instructions: 1510000004 cycles: 800409823 heartbeat IPC: 1.11691 cumulative IPC: 1.54886 (Simulation time: 1 hr 44 min 41 sec) 
Heartbeat CPU 0 instructions: 1520000002 cycles: 808613442 heartbeat IPC: 1.21897 cumulative IPC: 1.54476 (Simulation time: 1 hr 45 min 34 sec) 
Heartbeat CPU 0 instructions: 1530000003 cycles: 815101438 heartbeat IPC: 1.54131 cumulative IPC: 1.54472 (Simulation time: 1 hr 46 min 23 sec) 
Heartbeat CPU 0 instructions: 1540000001 cycles: 820718832 heartbeat IPC: 1.78018 cumulative IPC: 1.54669 (Simulation time: 1 hr 47 min 13 sec) 
Heartbeat CPU 0 instructions: 1550000004 cycles: 825647898 heartbeat IPC: 2.02878 cumulative IPC: 1.5502 (Simulation time: 1 hr 48 min 1 sec) 
Heartbeat CPU 0 instructions: 1560000000 cycles: 831848629 heartbeat IPC: 1.61271 cumulative IPC: 1.55077 (Simulation time: 1 hr 49 min 5 sec) 
Heartbeat CPU 0 instructions: 1570000000 cycles: 838807163 heartbeat IPC: 1.43708 cumulative IPC: 1.54962 (Simulation time: 1 hr 49 min 46 sec) 
Heartbeat CPU 0 instructions: 1580000001 cycles: 845675306 heartbeat IPC: 1.456 cumulative IPC: 1.5487 (Simulation time: 1 hr 50 min 25 sec) 
Heartbeat CPU 0 instructions: 1590000001 cycles: 852512069 heartbeat IPC: 1.46268 cumulative IPC: 1.54786 (Simulation time: 1 hr 51 min 4 sec) 
Heartbeat CPU 0 instructions: 1600000001 cycles: 858864671 heartbeat IPC: 1.57416 cumulative IPC: 1.5481 (Simulation time: 1 hr 51 min 43 sec) 
Heartbeat CPU 0 instructions: 1610000001 cycles: 864176231 heartbeat IPC: 1.88269 cumulative IPC: 1.55058 (Simulation time: 1 hr 52 min 23 sec) 
Heartbeat CPU 0 instructions: 1620000000 cycles: 869105961 heartbeat IPC: 2.02851 cumulative IPC: 1.55385 (Simulation time: 1 hr 53 min 5 sec) 
Heartbeat CPU 0 instructions: 1630000001 cycles: 873891316 heartbeat IPC: 2.08971 cumulative IPC: 1.55738 (Simulation time: 1 hr 53 min 50 sec) 
Heartbeat CPU 0 instructions: 1640000001 cycles: 879760852 heartbeat IPC: 1.70371 cumulative IPC: 1.55856 (Simulation time: 1 hr 54 min 31 sec) 
Heartbeat CPU 0 instructions: 1650000004 cycles: 885136371 heartbeat IPC: 1.86029 cumulative IPC: 1.56076 (Simulation time: 1 hr 55 min 13 sec) 
Heartbeat CPU 0 instructions: 1660000003 cycles: 890755441 heartbeat IPC: 1.77965 cumulative IPC: 1.56242 (Simulation time: 1 hr 55 min 54 sec) 
Heartbeat CPU 0 instructions: 1670000003 cycles: 896276805 heartbeat IPC: 1.81115 cumulative IPC: 1.56425 (Simulation time: 1 hr 56 min 34 sec) 
Heartbeat CPU 0 instructions: 1680000001 cycles: 901832515 heartbeat IPC: 1.79995 cumulative IPC: 1.56599 (Simulation time: 1 hr 57 min 15 sec) 
Heartbeat CPU 0 instructions: 1690000001 cycles: 908070563 heartbeat IPC: 1.60307 cumulative IPC: 1.56629 (Simulation time: 1 hr 57 min 55 sec) 
Heartbeat CPU 0 instructions: 1700000001 cycles: 913950227 heartbeat IPC: 1.70078 cumulative IPC: 1.56733 (Simulation time: 1 hr 58 min 31 sec) 
Heartbeat CPU 0 instructions: 1710000003 cycles: 919913881 heartbeat IPC: 1.67682 cumulative IPC: 1.56817 (Simulation time: 1 hr 59 min 16 sec) 
Heartbeat CPU 0 instructions: 1720000002 cycles: 925400237 heartbeat IPC: 1.8227 cumulative IPC: 1.56997 (Simulation time: 1 hr 59 min 58 sec) 
Heartbeat CPU 0 instructions: 1730000002 cycles: 931450932 heartbeat IPC: 1.6527 cumulative IPC: 1.57061 (Simulation time: 2 hr 0 min 36 sec) 
Heartbeat CPU 0 instructions: 1740000001 cycles: 937811337 heartbeat IPC: 1.57223 cumulative IPC: 1.57062 (Simulation time: 2 hr 1 min 12 sec) 
Heartbeat CPU 0 instructions: 1750000000 cycles: 943495281 heartbeat IPC: 1.75934 cumulative IPC: 1.57197 (Simulation time: 2 hr 2 min 3 sec) 
Heartbeat CPU 0 instructions: 1760000002 cycles: 949725980 heartbeat IPC: 1.60496 cumulative IPC: 1.57223 (Simulation time: 2 hr 2 min 39 sec) 
Heartbeat CPU 0 instructions: 1770000001 cycles: 957428700 heartbeat IPC: 1.29824 cumulative IPC: 1.56962 (Simulation time: 2 hr 3 min 37 sec) 
Heartbeat CPU 0 instructions: 1780000000 cycles: 966271345 heartbeat IPC: 1.13088 cumulative IPC: 1.56488 (Simulation time: 2 hr 4 min 32 sec) 
Heartbeat CPU 0 instructions: 1790000002 cycles: 972383667 heartbeat IPC: 1.63604 cumulative IPC: 1.56541 (Simulation time: 2 hr 5 min 23 sec) 
Heartbeat CPU 0 instructions: 1800000004 cycles: 978303654 heartbeat IPC: 1.68919 cumulative IPC: 1.56629 (Simulation time: 2 hr 6 min 14 sec) 
Heartbeat CPU 0 instructions: 1810000000 cycles: 982777385 heartbeat IPC: 2.23527 cumulative IPC: 1.56987 (Simulation time: 2 hr 6 min 59 sec) 
Heartbeat CPU 0 instructions: 1820000003 cycles: 989661064 heartbeat IPC: 1.45271 cumulative IPC: 1.56892 (Simulation time: 2 hr 7 min 55 sec) 
Heartbeat CPU 0 instructions: 1830000004 cycles: 994990483 heartbeat IPC: 1.87638 cumulative IPC: 1.57085 (Simulation time: 2 hr 8 min 35 sec) 
Heartbeat CPU 0 instructions: 1840000000 cycles: 1001934113 heartbeat IPC: 1.44017 cumulative IPC: 1.56979 (Simulation time: 2 hr 9 min 17 sec) 
Heartbeat CPU 0 instructions: 1850000003 cycles: 1009062606 heartbeat IPC: 1.40282 cumulative IPC: 1.56841 (Simulation time: 2 hr 9 min 55 sec) 
Heartbeat CPU 0 instructions: 1860000003 cycles: 1015780505 heartbeat IPC: 1.48856 cumulative IPC: 1.56779 (Simulation time: 2 hr 10 min 34 sec) 
Heartbeat CPU 0 instructions: 1870000002 cycles: 1022280843 heartbeat IPC: 1.53838 cumulative IPC: 1.56757 (Simulation time: 2 hr 11 min 13 sec) 
Heartbeat CPU 0 instructions: 1880000003 cycles: 1028333069 heartbeat IPC: 1.65228 cumulative IPC: 1.56815 (Simulation time: 2 hr 11 min 54 sec) 
Heartbeat CPU 0 instructions: 1890000004 cycles: 1034795215 heartbeat IPC: 1.54747 cumulative IPC: 1.568 (Simulation time: 2 hr 12 min 32 sec) 
Heartbeat CPU 0 instructions: 1900000003 cycles: 1040414051 heartbeat IPC: 1.77973 cumulative IPC: 1.56933 (Simulation time: 2 hr 13 min 12 sec) 
Heartbeat CPU 0 instructions: 1910000003 cycles: 1045965513 heartbeat IPC: 1.80133 cumulative IPC: 1.57077 (Simulation time: 2 hr 13 min 51 sec) 
Heartbeat CPU 0 instructions: 1920000004 cycles: 1051589828 heartbeat IPC: 1.77799 cumulative IPC: 1.57206 (Simulation time: 2 hr 14 min 32 sec) 
Heartbeat CPU 0 instructions: 1930000001 cycles: 1057928334 heartbeat IPC: 1.57766 cumulative IPC: 1.5721 (Simulation time: 2 hr 15 min 13 sec) 
Heartbeat CPU 0 instructions: 1940000004 cycles: 1064613510 heartbeat IPC: 1.49585 cumulative IPC: 1.57154 (Simulation time: 2 hr 15 min 53 sec) 
Heartbeat CPU 0 instructions: 1950000003 cycles: 1070213910 heartbeat IPC: 1.78559 cumulative IPC: 1.57284 (Simulation time: 2 hr 16 min 33 sec) 
Heartbeat CPU 0 instructions: 1960000003 cycles: 1076011682 heartbeat IPC: 1.7248 cumulative IPC: 1.57379 (Simulation time: 2 hr 17 min 12 sec) 
Heartbeat CPU 0 instructions: 1970000003 cycles: 1083013592 heartbeat IPC: 1.42818 cumulative IPC: 1.5727 (Simulation time: 2 hr 17 min 49 sec) 
Heartbeat CPU 0 instructions: 1980000001 cycles: 1089616588 heartbeat IPC: 1.51446 cumulative IPC: 1.57229 (Simulation time: 2 hr 18 min 33 sec) 
Heartbeat CPU 0 instructions: 1990000002 cycles: 1096583830 heartbeat IPC: 1.43529 cumulative IPC: 1.57129 (Simulation time: 2 hr 19 min 9 sec) 
*** Reached end of trace: traces/401.bzip2-7B.champsimtrace.xz
Heartbeat CPU 0 instructions: 2000000004 cycles: 1105523321 heartbeat IPC: 1.11863 cumulative IPC: 1.56706 (Simulation time: 2 hr 20 min 12 sec) 
Finished CPU 0 instructions: 1500000000 cycles: 957207520 cumulative IPC: 1.56706 (Simulation time: 2 hr 20 min 12 sec) 

ChampSim completed all CPUs

Region of Interest Statistics

CPU 0 cumulative IPC: 1.56706 instructions: 1500000000 cycles: 957207520
cpu0_DTLB TOTAL     ACCESS:  341686856  HIT:  337207201  MISS:    4479655
cpu0_DTLB LOAD      ACCESS:  254814565  HIT:  252042723  MISS:    2771842
cpu0_DTLB RFO       ACCESS:   86872291  HIT:   85164478  MISS:    1707813
cpu0_DTLB PREFETCH  ACCESS:          0  HIT:          0  MISS:          0
cpu0_DTLB WRITEBACK ACCESS:          0  HIT:          0  MISS:          0
cpu0_DTLB TRANSLATION ACCESS:          0  HIT:          0  MISS:          0
cpu0_DTLB PREFETCH  REQUESTED:          0  ISSUED:          0  USEFUL:          0  USELESS:          0
cpu0_DTLB AVERAGE MISS LATENCY: 9.09104 cycles
cpu0_ITLB TOTAL     ACCESS:  114409466  HIT:  114409466  MISS:          0
cpu0_ITLB LOAD      ACCESS:  114409466  HIT:  114409466  MISS:          0
cpu0_ITLB RFO       ACCESS:          0  HIT:          0  MISS:          0
cpu0_ITLB PREFETCH  ACCESS:          0  HIT:          0  MISS:          0
cpu0_ITLB WRITEBACK ACCESS:          0  HIT:          0  MISS:          0
cpu0_ITLB TRANSLATION ACCESS:          0  HIT:          0  MISS:          0
cpu0_ITLB PREFETCH  REQUESTED:          0  ISSUED:          0  USEFUL:          0  USELESS:          0
cpu0_ITLB AVERAGE MISS LATENCY: -nan cycles
cpu0_L1I TOTAL     ACCESS:   15546493  HIT:   15546493  MISS:          0
cpu0_L1I LOAD      ACCESS:   15546493  HIT:   15546493  MISS:          0
cpu0_L1I RFO       ACCESS:          0  HIT:          0  MISS:          0
cpu0_L1I PREFETCH  ACCESS:          0  HIT:          0  MISS:          0
cpu0_L1I WRITEBACK ACCESS:          0  HIT:          0  MISS:          0
cpu0_L1I TRANSLATION ACCESS:          0  HIT:          0  MISS:          0
cpu0_L1I PREFETCH  REQUESTED:          0  ISSUED:          0  USEFUL:          0  USELESS:          0
cpu0_L1I AVERAGE MISS LATENCY: -nan cycles
cpu0_STLB TOTAL     ACCESS:    4479655  HIT:    4478972  MISS:        683
cpu0_STLB LOAD      ACCESS:    2771842  HIT:    2771229  MISS:        613
cpu0_STLB RFO       ACCESS:    1707813  HIT:    1707743  MISS:         70
cpu0_STLB PREFETCH  ACCESS:          0  HIT:          0  MISS:          0
cpu0_STLB WRITEBACK ACCESS:          0  HIT:          0  MISS:          0
cpu0_STLB TRANSLATION ACCESS:          0  HIT:          0  MISS:          0
cpu0_STLB PREFETCH  REQUESTED:          0  ISSUED:          0  USEFUL:          0  USELESS:          0
cpu0_STLB AVERAGE MISS LATENCY: 211.176 cycles
cpu0_L1D TOTAL     ACCESS:  384383891  HIT:  365240256  MISS:   19143635
cpu0_L1D LOAD      ACCESS:  231858960  HIT:  215707916  MISS:   16151044
cpu0_L1D RFO       ACCESS:  152524248  HIT:  149531667  MISS:    2992581
cpu0_L1D PREFETCH  ACCESS:          0  HIT:          0  MISS:          0
cpu0_L1D WRITEBACK ACCESS:          0  HIT:          0  MISS:          0
cpu0_L1D TRANSLATION ACCESS:        683  HIT:        673  MISS:         10
cpu0_L1D PREFETCH  REQUESTED:          0  ISSUED:          0  USEFUL:          0  USELESS:          0
cpu0_L1D AVERAGE MISS LATENCY: 49.9684 cycles
cpu0_L2C TOTAL     ACCESS:   23430088  HIT:   16482579  MISS:    6947509
cpu0_L2C LOAD      ACCESS:   16150675  HIT:   11634571  MISS:    4516104
cpu0_L2C RFO       ACCESS:    2992406  HIT:     562953  MISS:    2429453
cpu0_L2C PREFETCH  ACCESS:          0  HIT:          0  MISS:          0
cpu0_L2C WRITEBACK ACCESS:    4286997  HIT:    4285055  MISS:       1942
cpu0_L2C TRANSLATION ACCESS:         10  HIT:          0  MISS:         10
cpu0_L2C PREFETCH  REQUESTED:          0  ISSUED:          0  USEFUL:          0  USELESS:          0
cpu0_L2C AVERAGE MISS LATENCY: 107.219 cycles
LLC TOTAL     ACCESS:    9791130  HIT:    8586125  MISS:    1205005
LLC LOAD      ACCESS:    4507315  HIT:    3905140  MISS:     602175
LLC RFO       ACCESS:    2429340  HIT:    1827874  MISS:     601466
LLC PREFETCH  ACCESS:          0  HIT:          0  MISS:          0
LLC WRITEBACK ACCESS:    2854465  HIT:    2853111  MISS:       1354
LLC TRANSLATION ACCESS:         10  HIT:          0  MISS:         10
LLC PREFETCH  REQUESTED:          0  ISSUED:          0  USEFUL:          0  USELESS:          0
LLC AVERAGE MISS LATENCY: 497.259 cycles
~~~~~~~~~~Reuse Distance Profiler output~~~~~~~~~~
0	66129904	18739792
1	59725584	31110640
2	58711744	39223712
3	48345488	36073856
4	33379936	24519152
5	24235072	16800320
6	18699120	12034288
7	17049824	10920272
8	15595472	9487440
9	13739296	9195664
10	11051216	7080944
11	12126560	6031088
12	10280480	6126096
13	18033344	9848608
14	8120304	5189264
15	7864208	4873312
16	6396752	3726576
17	4686144	2776240
18	3988320	2387376
19	3793024	2228480
20	3162960	1669600
21	2882096	1600496
22	2730352	1554816
23	2388288	1184928
24	2090896	1047552
25	1702656	930320
26	1425328	791152
27	1616592	920528
28	1117728	640928
29	897360	524960
30	766640	471056
31	714464	456592
32	692176	454208
33	592864	425184
34	546800	399360
35	548288	379360
36	459472	351392
37	425952	329792
38	447552	348656
39	403328	319808
40	370480	277424
41	645776	362848
42	315568	242336
43	300720	228688
44	281744	215408
45	292992	227472
46	276880	213424
47	345360	227312
48	285648	198240
49	305136	211408
50	268304	199792
51	264672	183504
52	258784	189648
53	257504	190144
54	257488	186912
55	408672	285696
56	292256	230064
57	329248	265536
58	362016	298272
59	270336	215440
60	243376	192416
61	220752	175344
62	214368	172880
63	218608	177440
64	500624	396832
66	443216	368432
68	519312	456736
70	414496	360672
72	438368	384496
74	557392	490176
76	659424	599072
78	692784	626224
80	649424	564704
82	660720	581760
84	507216	453392
86	447728	392880
88	397040	346368
90	411360	361968
92	368864	320784
94	350624	296352
96	493072	372592
98	335968	268480
100	328496	260304
102	299696	236864
104	287232	227872
106	277728	221088
108	275776	219120
110	364352	274672
112	427120	201408
114	508064	197856
116	566272	174640
118	516624	169616
120	315216	167200
122	282208	174560
124	352768	239984
126	265648	169152
128	464128	321136
132	425440	290352
136	750160	345248
140	556064	262720
144	432448	263136
148	362160	250304
152	341008	276608
156	259216	210384
160	293840	210928
164	301376	251872
168	226864	183552
172	352992	185840
176	360864	187632
180	267216	227120
184	235152	162800
188	218160	159920
192	375168	222784
196	207280	154432
200	187088	151264
204	185824	152224
208	247376	210016
212	188928	150272
216	181600	138672
220	225792	180032
224	187568	142128
228	175728	133536
232	161664	124896
236	192096	158528
240	156976	128576
244	148976	126864
248	178400	157296
252	142080	120144
256	302800	251504
264	316112	262320
272	322800	283168
280	267088	223728
288	311456	270928
296	260960	230464
304	288960	255696
312	237584	195728
320	259152	210768
328	266016	204816
336	292736	211904
344	329376	234736
352	279072	216432
360	252752	215968
368	184864	160864
376	181888	158048
384	188080	160864
392	161392	130432
400	178384	152704
408	138096	121392
416	152448	142400
424	129968	124032
432	138800	134464
440	135808	129856
448	126688	122048
456	142496	138512
464	129632	125184
472	151088	146016
480	127040	123664
488	139472	135072
496	134784	130672
504	122736	114992
512	234864	226688
528	251824	232448
544	267472	258816
560	263184	254672
576	201776	194976
592	187104	179920
608	169408	163584
624	169424	163280
640	166960	161120
656	184672	177840
672	160000	154064
688	152960	147696
704	144608	138896
720	136592	131520
736	142160	137504
752	142704	138960
768	146224	142016
784	145360	140512
800	125680	121008
816	119616	115744
832	131680	128112
848	131936	128272
864	126896	122976
880	123568	119712
896	116208	113088
912	113984	111216
928	115808	111392
944	117088	113776
960	114768	110960
976	112960	109808
992	119984	117344
1008	110736	107968
1024	246432	240384
1056	214144	206752
1088	186752	181040
1120	192880	187136
1152	181664	176192
1184	178464	172640
1216	170928	165104
1248	153584	148800
1280	175056	169312
1312	155104	149248
1344	146928	140560
1376	162496	157664
1408	138656	132864
1440	130816	124608
1472	129056	122912
1504	112480	108112
1536	104416	99552
1568	99408	93584
1600	99584	94192
1632	97216	91600
1664	97152	91648
1696	103216	97888
1728	107440	101664
1760	98896	93552
1792	90736	86528
1824	91568	85392
1856	89008	81184
1888	88080	82848
1920	89280	82320
1952	95744	89136
1984	111904	105040
2016	83872	78304
2048	177392	165088
2112	170320	141584
2176	164064	155776
2240	156944	141056
2304	151856	143312
2368	159808	152112
2432	137792	129024
2496	133024	125632
2560	133712	126688
2624	153520	145360
2688	203952	196640
2752	161168	152848
2816	155552	143072
2880	153552	146640
2944	169360	160656
3008	167872	160928
3072	138368	128448
3136	153152	146816
3200	172272	166240
3264	143792	137984
3328	138192	132928
3392	130128	123872
3456	118320	109664
3520	102896	91904
3584	101088	89568
3648	98992	87232
3712	92576	83760
3776	89344	83280
3840	85328	78544
3904	82096	74368
3968	77120	69200
4032	72480	65696
4096	159632	145168
4224	157216	137856
4352	162048	150848
4480	130464	121760
4608	118320	110720
4736	110272	102752
4864	110256	102144
4992	107616	100640
5120	103792	97136
5248	97696	90704
5376	99488	92512
5504	95472	88800
5632	92144	85168
5760	92640	86128
5888	89504	84368
6016	95088	90064
6144	96208	89952
6272	98688	93360
6400	93008	87648
6528	95648	90544
6656	93280	88304
6784	88384	83136
6912	93632	88544
7040	91264	85712
7168	88576	81696
7296	83440	78112
7424	80752	75136
7552	76672	72064
7680	71776	66880
7808	75424	70496
7936	212832	207280
8064	129968	119808
8192	147696	131376
8448	131552	123232
8704	129408	121168
8960	123408	115408
9216	127472	118512
9472	120464	111776
9728	109520	100640
9984	132496	123152
10240	126400	112368
10496	107008	90928
10752	99280	90720
11008	95600	88640
11264	95856	88912
11520	95616	88256
11776	88992	80576
12032	91600	84400
12288	103216	95056
12544	90352	78688
12800	80464	74736
13056	89344	83840
13312	83136	77536
13568	86368	80992
13824	82464	76800
14080	81760	77392
14336	85040	80464
14592	82960	78752
14848	81040	76640
15104	80672	76784
15360	148304	143184
15616	375440	371168
15872	81616	77728
16128	83200	78208
16384	406560	393104
16896	137728	130080
17408	131072	122576
17920	134880	124336
18432	167904	161600
18944	279792	272816
19456	135712	129648
19968	148832	143200
20480	143200	137088
20992	134976	128272
21504	380592	374688
22016	121696	115984
22528	129440	123808
23040	109424	104384
23552	113456	107744
24064	103568	99088
24576	100192	95904
25088	99856	95680
25600	88752	84992
26112	91248	87456
26624	171568	168368
27136	271696	267776
27648	145936	142352
28160	99712	95856
28672	85344	82560
29184	92496	89536
29696	275904	272544
30208	94736	90864
30720	77856	73648
31232	82144	77568
31744	84464	80528
32256	83584	81440
32768	160848	156224
33792	157536	151984
34816	193376	187488
35840	525040	515872
36864	165472	158400
37888	140992	136656
38912	168896	164800
39936	518912	512400
40960	162880	156448
41984	163792	159392
43008	115888	112112
44032	127568	123440
45056	123408	119568
46080	121968	117920
47104	162000	157920
48128	120256	116640
49152	99344	95296
50176	93664	90080
51200	92480	88480
52224	510704	506624
53248	123904	119760
54272	105824	101472
55296	112272	108544
56320	107248	92336
57344	90672	86560
58368	73632	70064
59392	85232	76288
60416	107216	71424
61440	72416	68624
62464	69856	64432
63488	70624	58656
64512	68896	65248
65536	166304	152976
67584	142240	126880
69632	154624	122240
71680	126720	108320
73728	109328	104160
75776	143216	112736
77824	102432	87568
79872	92880	88096
81920	99216	92240
83968	91872	85248
86016	89024	83984
88064	89248	80496
90112	83296	78688
92160	97776	81232
94208	94112	75184
96256	106704	76688
98304	75184	68752
100352	79504	72752
102400	76656	69808
104448	73408	58144
106496	80016	70976
108544	73392	65424
110592	91920	66496
112640	78672	70800
114688	73776	62976
116736	67216	57568
118784	63920	55696
120832	54416	47888
122880	51520	46256
124928	81360	45744
126976	50784	44528
129024	44864	42464
131072	91936	88064
135168	84016	78656
139264	81648	77280
143360	93008	89136
147456	96384	92656
151552	120400	93792
155648	80560	77792
159744	90208	87168
163840	74176	71584
167936	66544	63632
172032	80064	65392
176128	63760	61168
180224	62640	58816
184320	61584	58464
188416	60032	56208
192512	55984	52416
196608	58256	54416
200704	59456	55552
204800	58496	54944
208896	59280	56352
212992	57184	54032
217088	51504	47616
221184	61440	56832
225280	65264	61280
229376	58720	54976
233472	57328	53632
237568	70064	50400
241664	62864	54592
245760	53920	51696
249856	55040	48032
253952	53728	48576
258048	44352	40336
262144	86448	79040
270336	70832	65600
278528	80320	72656
286720	71728	63424
294912	70832	66736
303104	64016	60240
311296	61552	58112
319488	60480	57200
327680	59008	55952
335872	55712	52960
344064	55712	50368
352256	59728	54752
360448	58784	54736
368640	62704	56464
376832	53168	48416
385024	51296	47376
393216	51536	45616
401408	53536	50144
409600	46608	43440
417792	41824	38512
425984	50272	38928
434176	38736	35936
442368	67520	38304
450560	43408	32352
458752	55536	30592
466944	43360	27136
475136	36032	30000
483328	36576	28544
491520	39760	33120
499712	41696	34160
507904	51152	33408
516096	41536	28752
524288	81840	59088
540672	92176	59648
557056	101328	63104
573440	76512	54304
589824	83008	52240
606208	74592	51840
622592	67648	44800
638976	50464	40176
655360	54560	37248
671744	52704	34816
688128	50720	35488
704512	56160	31728
720896	51792	33008
737280	44192	28768
753664	41712	30048
770048	42928	31424
786432	51856	35424
802816	40384	33744
819200	53344	33696
835584	49040	40240
851968	38064	32752
868352	37296	32208
884736	63152	44640
901120	27328	19600
917504	28240	18704
933888	39584	29936
950272	26336	22288
966656	32192	21248
983040	34192	20672
999424	28544	21664
1015808	20288	17120
1032192	20880	15872
1048576	63664	45904
1081344	46288	32112
1114112	57648	43440
1146880	44848	26080
1179648	62416	42704
1212416	41600	30976
1245184	65312	34752
1277952	65072	29424
1310720	58512	30896
1343488	63648	28912
1376256	51104	24368
1409024	80384	20528
1441792	33936	23376
1474560	64784	21648
1507328	51216	21856
1540096	23488	13312
1572864	32000	13040
1605632	24832	15888
1638400	24816	10928
1671168	30512	10672
1703936	25856	12736
1736704	31856	13232
1769472	17728	12288
1802240	29200	12928
1835008	22272	13248
1867776	29392	17024
1900544	19008	14720
1933312	18976	15072
1966080	19088	11872
1998848	35392	12752
2031616	22176	11344
2064384	22224	10448
2097152	36848	23392
2162688	30720	20288
2228224	29120	20464
2293760	32816	24192
2359296	29312	15120
2424832	29424	18656
2490368	35968	15344
2555904	27264	18752
2621440	25808	16640
2686976	28368	18800
2752512	28784	16848
2818048	22528	13568
2883584	20192	12448
2949120	17984	11184
3014656	21856	12768
3080192	18752	10736
3145728	11184	6752
3211264	12752	7216
3276800	21440	6912
3342336	16064	8752
3407872	10496	7168
3473408	13280	7536
3538944	8800	5152
3604480	27200	5920
3670016	10512	5472
3735552	18352	7840
3801088	25584	5792
3866624	25264	5968
3932160	30976	6848
3997696	27904	4256
4063232	10784	6352
4128768	12992	6368
4194304	54816	15760
4325376	22992	8928
4456448	22032	7872
4587520	34608	9120
4718592	23792	7152
4849664	12720	8272
4980736	22480	6512
5111808	41440	10192
5242880	14400	7920
5373952	25168	10256
5505024	17392	10096
5636096	15984	9632
5767168	50768	9792
5898240	27776	8192
6029312	11056	7200
6160384	11280	7792
6291456	17328	6160
6422528	18544	6464
6553600	13152	4384
6684672	15664	4320
6815744	17792	4064
6946816	8608	2752
7077888	9424	4288
7208960	7856	4464
7340032	22624	3632
7471104	10144	4496
7602176	7312	3072
7733248	8816	2864
7864320	8064	3664
7995392	8128	3424
8126464	20160	3008
8257536	7824	3312
8388608	24480	5072
8650752	18896	6144
8912896	10512	4560
9175040	14784	5712
9437184	11424	3760
9699328	18144	8608
9961472	18304	4352
10223616	20000	9568
10485760	10976	2400
10747904	11344	4064
11010048	12208	3696
11272192	10848	3312
11534336	10656	4080
11796480	10752	5008
12058624	9408	4592
12320768	8944	5008
12582912	9904	5888
12845056	7472	4352
13107200	8000	4256
13369344	9056	5808
13631488	8480	5296
13893632	10144	3168
14155776	11552	3328
14417920	12080	3104
14680064	16112	3680
14942208	18400	2176
15204352	24496	3568
15466496	24848	2976
15728640	24656	2080
15990784	25136	3680
16252928	22400	1808
16515072	20208	2192
16777216	34576	7296
17301504	26432	2256
17825792	22784	3280
18350080	23040	5952
18874368	20624	4128
19398656	21680	4064
19922944	16544	3696
20447232	14848	3680
20971520	8560	3200
21495808	7440	5152
22020096	10816	8016
22544384	8160	5680
23068672	8048	5488
23592960	7408	5456
24117248	8736	6432
24641536	7648	5648
25165824	5488	3328
25690112	5312	4096
26214400	3248	2512
26738688	4544	3280
27262976	3632	2720
27787264	4160	3056
28311552	5808	4864
28835840	5280	4208
29360128	6544	5600
29884416	3744	2944
30408704	5024	3872
30932992	3296	2496
31457280	6672	5360
31981568	5344	3136
32505856	6112	4816
33030144	4432	3680
33554432	10656	8880
34603008	13104	10672
35651584	8640	6944
36700160	10528	9664
37748736	6528	5792
38797312	4176	3600
39845888	5840	4960
40894464	6368	4720
41943040	7408	5696
42991616	7680	6752
44040192	6512	5232
45088768	9296	7248
46137344	8608	7024
47185920	5472	4864
48234496	5776	5760
49283072	4368	4160
50331648	3920	3504
51380224	3824	3424
52428800	3216	3072
53477376	3072	2944
54525952	1472	1344
55574528	2608	1728
56623104	912	496
57671680	3888	1472
58720256	2224	304
59768832	2272	304
60817408	1664	16
61865984	2512	0
62914560	128	0
63963136	176	0
65011712	128	16
66060288	96	32
67108864	96	0
69206016	1856	0
71303168	1936	0
73400320	384	32
75497472	112	0
77594624	2128	0
79691776	16	0
81788928	208	0
83886080	0	0
85983232	0	0
88080384	0	0
90177536	0	0
92274688	0	0
94371840	0	0
96468992	0	0
98566144	0	0
100663296	0	0
102760448	0	0
104857600	0	0
106954752	0	0
109051904	0	0
111149056	0	0
113246208	0	0
115343360	0	0
117440512	0	0
119537664	0	0
121634816	0	0
123731968	0	0
125829120	0	0
127926272	16	0
130023424	0	0
132120576	0	0
134217728	0	0
138412032	0	0
142606336	48	0
146800640	0	0
150994944	0	0
155189248	0	0
159383552	0	0
163577856	0	0
167772160	0	0
171966464	0	0
176160768	0	0
180355072	0	0
184549376	0	0
188743680	0	0
192937984	0	0
197132288	0	0
201326592	0	0
205520896	0	0
209715200	0	0
213909504	0	0
218103808	0	0
222298112	0	0
226492416	0	0
230686720	0	0
234881024	0	0
239075328	0	0
243269632	0	0
247463936	0	0
251658240	0	0
255852544	0	0
260046848	0	0
264241152	0	0
268435456	0	0
276824064	0	0
285212672	0	0
293601280	0	0
301989888	0	0
310378496	0	0
318767104	0	0
327155712	0	0
335544320	16	0
343932928	0	0
352321536	0	0
360710144	0	0
369098752	0	0
377487360	0	0
385875968	0	0
394264576	0	0
402653184	0	0
411041792	0	0
419430400	0	0
427819008	0	0
436207616	0	0
444596224	0	0
452984832	0	0
461373440	0	0
469762048	0	0
478150656	0	0
486539264	0	0
494927872	0	0
503316480	0	0
511705088	0	0
520093696	0	0
528482304	0	0
536870912	0	0
553648128	0	0
570425344	0	0
587202560	0	0
603979776	0	0
620756992	0	0
637534208	0	0
654311424	0	0
671088640	0	0
687865856	0	0
704643072	0	0
721420288	0	0
738197504	0	0
754974720	0	0
771751936	0	0
788529152	0	0
805306368	0	0
822083584	0	0
838860800	0	0
855638016	0	0
872415232	0	0
889192448	0	0
905969664	0	0
922746880	0	0
939524096	0	0
956301312	0	0
973078528	0	0
989855744	0	0
1006632960	0	0
1023410176	0	0
1040187392	0	0
1056964608	0	0
1073741824	0	0
1107296256	0	0
1140850688	0	0
1174405120	0	0
1207959552	0	0
1241513984	0	0
1275068416	0	0
1308622848	0	0
1342177280	0	0
1375731712	0	0
1409286144	0	0
1442840576	0	0
1476395008	0	0
1509949440	0	0
1543503872	0	0
1577058304	0	0
1610612736	0	0
1644167168	0	0
1677721600	0	0
1711276032	0	0
1744830464	0	0
1778384896	0	0
1811939328	0	0
1845493760	0	0
1879048192	0	0
1912602624	0	0
1946157056	0	0
1979711488	0	0
2013265920	0	0
2046820352	0	0
2080374784	0	0
2113929216	0	0
2147483648	0	0
2214592512	0	0
2281701376	0	0
2348810240	0	0
2415919104	0	0
2483027968	0	0
2550136832	0	0
2617245696	0	0
2684354560	0	0
2751463424	0	0
2818572288	0	0
2885681152	0	0
2952790016	0	0
3019898880	0	0
3087007744	0	0
3154116608	0	0
3221225472	0	0
3288334336	0	0
3355443200	0	0
3422552064	0	0
3489660928	0	0
3556769792	0	0
3623878656	0	0
3690987520	0	0
3758096384	0	0
3825205248	0	0
3892314112	0	0
3959422976	0	0
4026531840	0	0
4093640704	0	0
4160749568	0	0
4227858432	0	0
~~~~~~~~~~Reuse Distance Profiler output end~~~~~~~~~~

DRAM Statistics
 CHANNEL 0
 RQ ROW_BUFFER_HIT:     226628  ROW_BUFFER_MISS:     961837
 DBUS AVG_CONGESTED_CYCLE:    3.97734
 WQ ROW_BUFFER_HIT:     103868  ROW_BUFFER_MISS:     739213  FULL:       3046


CPU 0 Branch Prediction Accuracy: 93.4671% MPKI: 9.86748 Average ROB Occupancy at Mispredict: 50.2744
Branch type MPKI
BRANCH_DIRECT_JUMP: 0
BRANCH_INDIRECT: 0
BRANCH_CONDITIONAL: 9.86748
BRANCH_DIRECT_CALL: 0
BRANCH_INDIRECT_CALL: 0
BRANCH_RETURN: 0

