
*** ChampSim Multicore Out-of-Order Simulator ***

Warmup Instructions: 500000000
Simulation Instructions: 1500000000
Number of CPUs: 1
Off-chip DRAM Size: 4 GiB Channels: 1 Width: 64-bit Data Rate: 3200 MT/s

VirtualMemory physical capacity: 8588881920 num_ppages: 2096895
VirtualMemory page size: 4096 log2_page_size: 12

CPU 0 runs traces/401.bzip2-277B.champsimtrace.xz
CPU 0 Bimodal branch predictor
Basic BTB sets: 1024 ways: 8 indirect buffer size: 4096 RAS size: 64
Initializing LRU.
Initializing LRU.
Initializing LRU.
Initializing LRU.
Initializing rdLRU.
Initializing LRU.
Initializing LRU.
Heartbeat CPU 0 instructions: 10000003 cycles: 2529644 heartbeat IPC: 3.95313 cumulative IPC: 3.95313 (Simulation time: 0 hr 0 min 25 sec) 
Heartbeat CPU 0 instructions: 20000000 cycles: 5053650 heartbeat IPC: 3.96195 cumulative IPC: 3.95754 (Simulation time: 0 hr 0 min 50 sec) 
Heartbeat CPU 0 instructions: 30000003 cycles: 7556331 heartbeat IPC: 3.99572 cumulative IPC: 3.97018 (Simulation time: 0 hr 1 min 23 sec) 
Heartbeat CPU 0 instructions: 40000000 cycles: 10058620 heartbeat IPC: 3.99634 cumulative IPC: 3.97669 (Simulation time: 0 hr 1 min 55 sec) 
Heartbeat CPU 0 instructions: 50000002 cycles: 12560915 heartbeat IPC: 3.99633 cumulative IPC: 3.9806 (Simulation time: 0 hr 2 min 26 sec) 
Heartbeat CPU 0 instructions: 60000000 cycles: 15063208 heartbeat IPC: 3.99633 cumulative IPC: 3.98322 (Simulation time: 0 hr 2 min 58 sec) 
Heartbeat CPU 0 instructions: 70000002 cycles: 17671010 heartbeat IPC: 3.83465 cumulative IPC: 3.96129 (Simulation time: 0 hr 3 min 34 sec) 
Heartbeat CPU 0 instructions: 80000000 cycles: 20198420 heartbeat IPC: 3.95662 cumulative IPC: 3.96071 (Simulation time: 0 hr 3 min 59 sec) 
Heartbeat CPU 0 instructions: 90000001 cycles: 22723054 heartbeat IPC: 3.96097 cumulative IPC: 3.96074 (Simulation time: 0 hr 4 min 23 sec) 
Heartbeat CPU 0 instructions: 100000002 cycles: 25225729 heartbeat IPC: 3.99572 cumulative IPC: 3.96421 (Simulation time: 0 hr 4 min 55 sec) 
Heartbeat CPU 0 instructions: 110000003 cycles: 27728023 heartbeat IPC: 3.99633 cumulative IPC: 3.96711 (Simulation time: 0 hr 5 min 27 sec) 
Heartbeat CPU 0 instructions: 120000001 cycles: 30230317 heartbeat IPC: 3.99633 cumulative IPC: 3.96953 (Simulation time: 0 hr 5 min 59 sec) 
Heartbeat CPU 0 instructions: 130000000 cycles: 32734768 heartbeat IPC: 3.99289 cumulative IPC: 3.97131 (Simulation time: 0 hr 6 min 30 sec) 
Heartbeat CPU 0 instructions: 140000000 cycles: 35319820 heartbeat IPC: 3.86839 cumulative IPC: 3.96378 (Simulation time: 0 hr 7 min 5 sec) 
Heartbeat CPU 0 instructions: 150000003 cycles: 37846187 heartbeat IPC: 3.95825 cumulative IPC: 3.96341 (Simulation time: 0 hr 7 min 30 sec) 
Heartbeat CPU 0 instructions: 160000003 cycles: 40364990 heartbeat IPC: 3.97014 cumulative IPC: 3.96383 (Simulation time: 0 hr 7 min 57 sec) 
Heartbeat CPU 0 instructions: 170000000 cycles: 42867663 heartbeat IPC: 3.99573 cumulative IPC: 3.96569 (Simulation time: 0 hr 8 min 28 sec) 
Heartbeat CPU 0 instructions: 180000003 cycles: 45369957 heartbeat IPC: 3.99633 cumulative IPC: 3.96738 (Simulation time: 0 hr 9 min 0 sec) 
Heartbeat CPU 0 instructions: 190000000 cycles: 47872263 heartbeat IPC: 3.99631 cumulative IPC: 3.9689 (Simulation time: 0 hr 9 min 31 sec) 
Heartbeat CPU 0 instructions: 200000001 cycles: 50417821 heartbeat IPC: 3.92841 cumulative IPC: 3.96685 (Simulation time: 0 hr 10 min 5 sec) 
Heartbeat CPU 0 instructions: 210000003 cycles: 52978069 heartbeat IPC: 3.90587 cumulative IPC: 3.9639 (Simulation time: 0 hr 10 min 36 sec) 
Heartbeat CPU 0 instructions: 220000002 cycles: 55504790 heartbeat IPC: 3.9577 cumulative IPC: 3.96362 (Simulation time: 0 hr 11 min 1 sec) 
Heartbeat CPU 0 instructions: 230000002 cycles: 58017772 heartbeat IPC: 3.97934 cumulative IPC: 3.9643 (Simulation time: 0 hr 11 min 29 sec) 
Heartbeat CPU 0 instructions: 240000002 cycles: 60520063 heartbeat IPC: 3.99634 cumulative IPC: 3.96563 (Simulation time: 0 hr 12 min 1 sec) 
Heartbeat CPU 0 instructions: 250000002 cycles: 63022748 heartbeat IPC: 3.99571 cumulative IPC: 3.96682 (Simulation time: 0 hr 12 min 33 sec) 
Heartbeat CPU 0 instructions: 260000003 cycles: 65524653 heartbeat IPC: 3.99695 cumulative IPC: 3.96797 (Simulation time: 0 hr 13 min 4 sec) 
Heartbeat CPU 0 instructions: 270000000 cycles: 68090964 heartbeat IPC: 3.89664 cumulative IPC: 3.96528 (Simulation time: 0 hr 13 min 39 sec) 
Heartbeat CPU 0 instructions: 280000001 cycles: 70637370 heartbeat IPC: 3.9271 cumulative IPC: 3.96391 (Simulation time: 0 hr 14 min 8 sec) 
Heartbeat CPU 0 instructions: 290000002 cycles: 73164091 heartbeat IPC: 3.9577 cumulative IPC: 3.96369 (Simulation time: 0 hr 14 min 33 sec) 
Heartbeat CPU 0 instructions: 300000002 cycles: 75672922 heartbeat IPC: 3.98592 cumulative IPC: 3.96443 (Simulation time: 0 hr 15 min 2 sec) 
Heartbeat CPU 0 instructions: 310000003 cycles: 78175605 heartbeat IPC: 3.99571 cumulative IPC: 3.96543 (Simulation time: 0 hr 15 min 34 sec) 
Heartbeat CPU 0 instructions: 320000000 cycles: 80677520 heartbeat IPC: 3.99694 cumulative IPC: 3.96641 (Simulation time: 0 hr 16 min 5 sec) 
Heartbeat CPU 0 instructions: 330000004 cycles: 83223019 heartbeat IPC: 3.9285 cumulative IPC: 3.96525 (Simulation time: 0 hr 16 min 39 sec) 
Heartbeat CPU 0 instructions: 340000000 cycles: 85765141 heartbeat IPC: 3.93372 cumulative IPC: 3.96431 (Simulation time: 0 hr 17 min 8 sec) 
Heartbeat CPU 0 instructions: 350000001 cycles: 88291510 heartbeat IPC: 3.95825 cumulative IPC: 3.96414 (Simulation time: 0 hr 17 min 33 sec) 
Heartbeat CPU 0 instructions: 360000003 cycles: 90799676 heartbeat IPC: 3.98698 cumulative IPC: 3.96477 (Simulation time: 0 hr 18 min 3 sec) 
Heartbeat CPU 0 instructions: 370000000 cycles: 93302359 heartbeat IPC: 3.99571 cumulative IPC: 3.9656 (Simulation time: 0 hr 18 min 35 sec) 
Heartbeat CPU 0 instructions: 380000002 cycles: 95804656 heartbeat IPC: 3.99633 cumulative IPC: 3.9664 (Simulation time: 0 hr 19 min 6 sec) 
Heartbeat CPU 0 instructions: 390000000 cycles: 98306944 heartbeat IPC: 3.99634 cumulative IPC: 3.96717 (Simulation time: 0 hr 19 min 38 sec) 
Heartbeat CPU 0 instructions: 400000001 cycles: 100829384 heartbeat IPC: 3.96442 cumulative IPC: 3.9671 (Simulation time: 0 hr 20 min 11 sec) 
Heartbeat CPU 0 instructions: 410000001 cycles: 103442405 heartbeat IPC: 3.82699 cumulative IPC: 3.96356 (Simulation time: 0 hr 20 min 45 sec) 
Heartbeat CPU 0 instructions: 420000001 cycles: 105969143 heartbeat IPC: 3.95767 cumulative IPC: 3.96342 (Simulation time: 0 hr 21 min 10 sec) 
Heartbeat CPU 0 instructions: 430000003 cycles: 108485522 heartbeat IPC: 3.97396 cumulative IPC: 3.96366 (Simulation time: 0 hr 21 min 37 sec) 
Heartbeat CPU 0 instructions: 440000003 cycles: 110988190 heartbeat IPC: 3.99574 cumulative IPC: 3.96439 (Simulation time: 0 hr 22 min 9 sec) 
Heartbeat CPU 0 instructions: 450000000 cycles: 113490483 heartbeat IPC: 3.99633 cumulative IPC: 3.96509 (Simulation time: 0 hr 22 min 41 sec) 
Heartbeat CPU 0 instructions: 460000001 cycles: 115993159 heartbeat IPC: 3.99572 cumulative IPC: 3.96575 (Simulation time: 0 hr 23 min 13 sec) 
Heartbeat CPU 0 instructions: 470000003 cycles: 118495454 heartbeat IPC: 3.99633 cumulative IPC: 3.9664 (Simulation time: 0 hr 23 min 45 sec) 
Heartbeat CPU 0 instructions: 480000003 cycles: 121101810 heartbeat IPC: 3.83677 cumulative IPC: 3.96361 (Simulation time: 0 hr 24 min 21 sec) 
Heartbeat CPU 0 instructions: 490000002 cycles: 123642799 heartbeat IPC: 3.93548 cumulative IPC: 3.96303 (Simulation time: 0 hr 24 min 47 sec) 
Heartbeat CPU 0 instructions: 500000000 cycles: 126169892 heartbeat IPC: 3.95712 cumulative IPC: 3.96291 (Simulation time: 0 hr 25 min 12 sec) 

Warmup complete CPU 0 instructions: 500000004 cycles: 126169893 (Simulation time: 0 hr 25 min 12 sec) 

Heartbeat CPU 0 instructions: 510000001 cycles: 136240743 heartbeat IPC: 0.992965 cumulative IPC: 0.992965 (Simulation time: 0 hr 25 min 44 sec) 
Heartbeat CPU 0 instructions: 520000004 cycles: 147252132 heartbeat IPC: 0.908151 cumulative IPC: 0.948666 (Simulation time: 0 hr 26 min 17 sec) 
Heartbeat CPU 0 instructions: 530000004 cycles: 158387495 heartbeat IPC: 0.89804 cumulative IPC: 0.931168 (Simulation time: 0 hr 26 min 50 sec) 
Heartbeat CPU 0 instructions: 540000001 cycles: 169673344 heartbeat IPC: 0.886065 cumulative IPC: 0.919467 (Simulation time: 0 hr 27 min 23 sec) 
Heartbeat CPU 0 instructions: 550000000 cycles: 180931693 heartbeat IPC: 0.88823 cumulative IPC: 0.913045 (Simulation time: 0 hr 27 min 56 sec) 
Heartbeat CPU 0 instructions: 560000001 cycles: 190095970 heartbeat IPC: 1.09119 cumulative IPC: 0.938584 (Simulation time: 0 hr 28 min 54 sec) 
Heartbeat CPU 0 instructions: 570000002 cycles: 195810856 heartbeat IPC: 1.74982 cumulative IPC: 1.00516 (Simulation time: 0 hr 29 min 46 sec) 
Heartbeat CPU 0 instructions: 580000003 cycles: 200917339 heartbeat IPC: 1.9583 cumulative IPC: 1.07027 (Simulation time: 0 hr 30 min 30 sec) 
Heartbeat CPU 0 instructions: 590000004 cycles: 210116751 heartbeat IPC: 1.08703 cumulative IPC: 1.07211 (Simulation time: 0 hr 31 min 4 sec) 
Heartbeat CPU 0 instructions: 600000002 cycles: 220814234 heartbeat IPC: 0.934799 cumulative IPC: 1.05659 (Simulation time: 0 hr 31 min 36 sec) 
Heartbeat CPU 0 instructions: 610000000 cycles: 231971090 heartbeat IPC: 0.89631 cumulative IPC: 1.03969 (Simulation time: 0 hr 32 min 9 sec) 
Heartbeat CPU 0 instructions: 620000000 cycles: 242889996 heartbeat IPC: 0.915843 cumulative IPC: 1.0281 (Simulation time: 0 hr 32 min 42 sec) 
Heartbeat CPU 0 instructions: 630000002 cycles: 252132783 heartbeat IPC: 1.08192 cumulative IPC: 1.03205 (Simulation time: 0 hr 33 min 35 sec) 
Heartbeat CPU 0 instructions: 640000001 cycles: 257710122 heartbeat IPC: 1.79297 cumulative IPC: 1.06431 (Simulation time: 0 hr 34 min 27 sec) 
Heartbeat CPU 0 instructions: 650000001 cycles: 262882468 heartbeat IPC: 1.93336 cumulative IPC: 1.09719 (Simulation time: 0 hr 35 min 8 sec) 
Heartbeat CPU 0 instructions: 660000001 cycles: 272156437 heartbeat IPC: 1.07829 cumulative IPC: 1.09599 (Simulation time: 0 hr 35 min 41 sec) 
Heartbeat CPU 0 instructions: 670000004 cycles: 283288075 heartbeat IPC: 0.898341 cumulative IPC: 1.08199 (Simulation time: 0 hr 36 min 14 sec) 
Heartbeat CPU 0 instructions: 680000000 cycles: 294568191 heartbeat IPC: 0.886515 cumulative IPC: 1.06889 (Simulation time: 0 hr 36 min 47 sec) 
Heartbeat CPU 0 instructions: 690000001 cycles: 306142350 heartbeat IPC: 0.863994 cumulative IPC: 1.05572 (Simulation time: 0 hr 37 min 20 sec) 
Heartbeat CPU 0 instructions: 700000002 cycles: 317719955 heartbeat IPC: 0.863737 cumulative IPC: 1.04411 (Simulation time: 0 hr 37 min 53 sec) 
Heartbeat CPU 0 instructions: 710000003 cycles: 326883532 heartbeat IPC: 1.09128 cumulative IPC: 1.04627 (Simulation time: 0 hr 38 min 51 sec) 
Heartbeat CPU 0 instructions: 720000001 cycles: 333738304 heartbeat IPC: 1.45884 cumulative IPC: 1.05989 (Simulation time: 0 hr 39 min 53 sec) 
Heartbeat CPU 0 instructions: 730000000 cycles: 340578743 heartbeat IPC: 1.46189 cumulative IPC: 1.07272 (Simulation time: 0 hr 40 min 54 sec) 
Heartbeat CPU 0 instructions: 740000001 cycles: 350881069 heartbeat IPC: 0.970655 cumulative IPC: 1.06804 (Simulation time: 0 hr 41 min 30 sec) 
Heartbeat CPU 0 instructions: 750000000 cycles: 362384256 heartbeat IPC: 0.869324 cumulative IPC: 1.05836 (Simulation time: 0 hr 42 min 4 sec) 
Heartbeat CPU 0 instructions: 760000001 cycles: 373535684 heartbeat IPC: 0.896746 cumulative IPC: 1.05107 (Simulation time: 0 hr 42 min 36 sec) 
Heartbeat CPU 0 instructions: 770000003 cycles: 384937995 heartbeat IPC: 0.877015 cumulative IPC: 1.04341 (Simulation time: 0 hr 43 min 10 sec) 
Heartbeat CPU 0 instructions: 780000000 cycles: 396308847 heartbeat IPC: 0.879441 cumulative IPC: 1.0365 (Simulation time: 0 hr 43 min 43 sec) 
Heartbeat CPU 0 instructions: 790000004 cycles: 406372254 heartbeat IPC: 0.9937 cumulative IPC: 1.03497 (Simulation time: 0 hr 44 min 34 sec) 
Heartbeat CPU 0 instructions: 800000002 cycles: 412800975 heartbeat IPC: 1.55552 cumulative IPC: 1.04664 (Simulation time: 0 hr 45 min 35 sec) 
Heartbeat CPU 0 instructions: 810000001 cycles: 418702139 heartbeat IPC: 1.69458 cumulative IPC: 1.05971 (Simulation time: 0 hr 46 min 28 sec) 
Heartbeat CPU 0 instructions: 820000000 cycles: 427828602 heartbeat IPC: 1.09571 cumulative IPC: 1.0608 (Simulation time: 0 hr 47 min 6 sec) 
Heartbeat CPU 0 instructions: 830000000 cycles: 439459640 heartbeat IPC: 0.859769 cumulative IPC: 1.05334 (Simulation time: 0 hr 47 min 40 sec) 
Heartbeat CPU 0 instructions: 840000003 cycles: 450537231 heartbeat IPC: 0.902724 cumulative IPC: 1.04819 (Simulation time: 0 hr 48 min 13 sec) 
Heartbeat CPU 0 instructions: 850000003 cycles: 462126074 heartbeat IPC: 0.862899 cumulative IPC: 1.0418 (Simulation time: 0 hr 48 min 46 sec) 
Heartbeat CPU 0 instructions: 860000001 cycles: 473412657 heartbeat IPC: 0.886008 cumulative IPC: 1.03674 (Simulation time: 0 hr 49 min 19 sec) 
Heartbeat CPU 0 instructions: 870000000 cycles: 484909075 heartbeat IPC: 0.869836 cumulative IPC: 1.03139 (Simulation time: 0 hr 49 min 54 sec) 
Heartbeat CPU 0 instructions: 880000002 cycles: 492483244 heartbeat IPC: 1.32028 cumulative IPC: 1.03736 (Simulation time: 0 hr 51 min 5 sec) 
Heartbeat CPU 0 instructions: 890000001 cycles: 499778595 heartbeat IPC: 1.37074 cumulative IPC: 1.04387 (Simulation time: 0 hr 52 min 7 sec) 
Heartbeat CPU 0 instructions: 900000004 cycles: 507289435 heartbeat IPC: 1.33141 cumulative IPC: 1.04954 (Simulation time: 0 hr 53 min 0 sec) 
Heartbeat CPU 0 instructions: 910000001 cycles: 518654996 heartbeat IPC: 0.879851 cumulative IPC: 1.04463 (Simulation time: 0 hr 53 min 33 sec) 
Heartbeat CPU 0 instructions: 920000000 cycles: 530015856 heartbeat IPC: 0.880215 cumulative IPC: 1.04 (Simulation time: 0 hr 54 min 5 sec) 
Heartbeat CPU 0 instructions: 930000001 cycles: 541311783 heartbeat IPC: 0.885275 cumulative IPC: 1.03579 (Simulation time: 0 hr 54 min 38 sec) 
Heartbeat CPU 0 instructions: 940000004 cycles: 552737731 heartbeat IPC: 0.875201 cumulative IPC: 1.03149 (Simulation time: 0 hr 55 min 11 sec) 
Heartbeat CPU 0 instructions: 950000004 cycles: 564190325 heartbeat IPC: 0.873165 cumulative IPC: 1.02735 (Simulation time: 0 hr 55 min 45 sec) 
Heartbeat CPU 0 instructions: 960000003 cycles: 573642315 heartbeat IPC: 1.05798 cumulative IPC: 1.028 (Simulation time: 0 hr 56 min 41 sec) 
Heartbeat CPU 0 instructions: 970000000 cycles: 580641927 heartbeat IPC: 1.42865 cumulative IPC: 1.03417 (Simulation time: 0 hr 57 min 44 sec) 
Heartbeat CPU 0 instructions: 980000003 cycles: 587001248 heartbeat IPC: 1.5725 cumulative IPC: 1.0416 (Simulation time: 0 hr 58 min 39 sec) 
Heartbeat CPU 0 instructions: 990000004 cycles: 596950502 heartbeat IPC: 1.0051 cumulative IPC: 1.04082 (Simulation time: 0 hr 59 min 16 sec) 
Heartbeat CPU 0 instructions: 1000000001 cycles: 608574471 heartbeat IPC: 0.860291 cumulative IPC: 1.03647 (Simulation time: 0 hr 59 min 49 sec) 
Heartbeat CPU 0 instructions: 1010000000 cycles: 619692197 heartbeat IPC: 0.899464 cumulative IPC: 1.03339 (Simulation time: 1 hr 0 min 22 sec) 
Heartbeat CPU 0 instructions: 1020000003 cycles: 631167731 heartbeat IPC: 0.871419 cumulative IPC: 1.02971 (Simulation time: 1 hr 0 min 55 sec) 
Heartbeat CPU 0 instructions: 1030000003 cycles: 642568815 heartbeat IPC: 0.87711 cumulative IPC: 1.02634 (Simulation time: 1 hr 1 min 28 sec) 
Heartbeat CPU 0 instructions: 1040000000 cycles: 653877705 heartbeat IPC: 0.88426 cumulative IPC: 1.02329 (Simulation time: 1 hr 2 min 5 sec) 
Heartbeat CPU 0 instructions: 1050000001 cycles: 661362778 heartbeat IPC: 1.33599 cumulative IPC: 1.02767 (Simulation time: 1 hr 3 min 18 sec) 
Heartbeat CPU 0 instructions: 1060000000 cycles: 667958072 heartbeat IPC: 1.51623 cumulative IPC: 1.03361 (Simulation time: 1 hr 4 min 15 sec) 
Heartbeat CPU 0 instructions: 1070000002 cycles: 675962470 heartbeat IPC: 1.24931 cumulative IPC: 1.03675 (Simulation time: 1 hr 5 min 4 sec) 
Heartbeat CPU 0 instructions: 1080000000 cycles: 687374068 heartbeat IPC: 0.876301 cumulative IPC: 1.03349 (Simulation time: 1 hr 5 min 37 sec) 
Heartbeat CPU 0 instructions: 1090000000 cycles: 698387721 heartbeat IPC: 0.907964 cumulative IPC: 1.03108 (Simulation time: 1 hr 6 min 9 sec) 
Heartbeat CPU 0 instructions: 1100000000 cycles: 709860320 heartbeat IPC: 0.871642 cumulative IPC: 1.02794 (Simulation time: 1 hr 6 min 42 sec) 
Heartbeat CPU 0 instructions: 1110000001 cycles: 721140724 heartbeat IPC: 0.886493 cumulative IPC: 1.02526 (Simulation time: 1 hr 7 min 15 sec) 
Heartbeat CPU 0 instructions: 1120000004 cycles: 732621717 heartbeat IPC: 0.871005 cumulative IPC: 1.02234 (Simulation time: 1 hr 7 min 48 sec) 
Heartbeat CPU 0 instructions: 1130000001 cycles: 740739147 heartbeat IPC: 1.23192 cumulative IPC: 1.02511 (Simulation time: 1 hr 8 min 53 sec) 
Heartbeat CPU 0 instructions: 1140000002 cycles: 746656914 heartbeat IPC: 1.68983 cumulative IPC: 1.03145 (Simulation time: 1 hr 9 min 46 sec) 
Heartbeat CPU 0 instructions: 1150000001 cycles: 752410142 heartbeat IPC: 1.73815 cumulative IPC: 1.03794 (Simulation time: 1 hr 10 min 33 sec) 
Heartbeat CPU 0 instructions: 1160000003 cycles: 763550776 heartbeat IPC: 0.897615 cumulative IPC: 1.03549 (Simulation time: 1 hr 11 min 5 sec) 
Heartbeat CPU 0 instructions: 1170000000 cycles: 774770919 heartbeat IPC: 0.891254 cumulative IPC: 1.03299 (Simulation time: 1 hr 11 min 38 sec) 
Heartbeat CPU 0 instructions: 1180000001 cycles: 786083181 heartbeat IPC: 0.883997 cumulative IPC: 1.03044 (Simulation time: 1 hr 12 min 11 sec) 
Heartbeat CPU 0 instructions: 1190000000 cycles: 797293716 heartbeat IPC: 0.892018 cumulative IPC: 1.02813 (Simulation time: 1 hr 12 min 44 sec) 
Heartbeat CPU 0 instructions: 1200000003 cycles: 807841638 heartbeat IPC: 0.948054 cumulative IPC: 1.02689 (Simulation time: 1 hr 13 min 28 sec) 
Heartbeat CPU 0 instructions: 1210000001 cycles: 814106832 heartbeat IPC: 1.59612 cumulative IPC: 1.03207 (Simulation time: 1 hr 14 min 30 sec) 
Heartbeat CPU 0 instructions: 1220000001 cycles: 819419523 heartbeat IPC: 1.88229 cumulative IPC: 1.03859 (Simulation time: 1 hr 15 min 17 sec) 
Heartbeat CPU 0 instructions: 1230000004 cycles: 827373357 heartbeat IPC: 1.25726 cumulative IPC: 1.04107 (Simulation time: 1 hr 15 min 56 sec) 
Heartbeat CPU 0 instructions: 1240000001 cycles: 838567439 heartbeat IPC: 0.893329 cumulative IPC: 1.03875 (Simulation time: 1 hr 16 min 29 sec) 
Heartbeat CPU 0 instructions: 1250000002 cycles: 849639535 heartbeat IPC: 0.903171 cumulative IPC: 1.03667 (Simulation time: 1 hr 17 min 1 sec) 
Heartbeat CPU 0 instructions: 1260000000 cycles: 860832445 heartbeat IPC: 0.893423 cumulative IPC: 1.03449 (Simulation time: 1 hr 17 min 34 sec) 
Heartbeat CPU 0 instructions: 1270000001 cycles: 872252005 heartbeat IPC: 0.875691 cumulative IPC: 1.03206 (Simulation time: 1 hr 18 min 7 sec) 
Heartbeat CPU 0 instructions: 1280000003 cycles: 881073311 heartbeat IPC: 1.13362 cumulative IPC: 1.03324 (Simulation time: 1 hr 19 min 7 sec) 
Heartbeat CPU 0 instructions: 1290000000 cycles: 887187883 heartbeat IPC: 1.63544 cumulative IPC: 1.03808 (Simulation time: 1 hr 20 min 0 sec) 
Heartbeat CPU 0 instructions: 1300000001 cycles: 892514227 heartbeat IPC: 1.87746 cumulative IPC: 1.04392 (Simulation time: 1 hr 20 min 45 sec) 
Heartbeat CPU 0 instructions: 1310000003 cycles: 902863549 heartbeat IPC: 0.966247 cumulative IPC: 1.04288 (Simulation time: 1 hr 21 min 18 sec) 
Heartbeat CPU 0 instructions: 1320000000 cycles: 913895523 heartbeat IPC: 0.906456 cumulative IPC: 1.04097 (Simulation time: 1 hr 21 min 51 sec) 
Heartbeat CPU 0 instructions: 1330000003 cycles: 924678651 heartbeat IPC: 0.927375 cumulative IPC: 1.03944 (Simulation time: 1 hr 22 min 23 sec) 
Heartbeat CPU 0 instructions: 1340000002 cycles: 935872375 heartbeat IPC: 0.893358 cumulative IPC: 1.03742 (Simulation time: 1 hr 22 min 56 sec) 
Heartbeat CPU 0 instructions: 1350000004 cycles: 946823068 heartbeat IPC: 0.913184 cumulative IPC: 1.03576 (Simulation time: 1 hr 23 min 29 sec) 
Heartbeat CPU 0 instructions: 1360000000 cycles: 953783062 heartbeat IPC: 1.43678 cumulative IPC: 1.03913 (Simulation time: 1 hr 24 min 39 sec) 
Heartbeat CPU 0 instructions: 1370000004 cycles: 958380202 heartbeat IPC: 2.17527 cumulative IPC: 1.04541 (Simulation time: 1 hr 25 min 20 sec) 
Heartbeat CPU 0 instructions: 1380000000 cycles: 964712542 heartbeat IPC: 1.57919 cumulative IPC: 1.04944 (Simulation time: 1 hr 25 min 57 sec) 
Heartbeat CPU 0 instructions: 1390000004 cycles: 975439583 heartbeat IPC: 0.932224 cumulative IPC: 1.04796 (Simulation time: 1 hr 26 min 29 sec) 
Heartbeat CPU 0 instructions: 1400000000 cycles: 986201633 heartbeat IPC: 0.929191 cumulative IPC: 1.04647 (Simulation time: 1 hr 27 min 1 sec) 
Heartbeat CPU 0 instructions: 1410000002 cycles: 997090621 heartbeat IPC: 0.918359 cumulative IPC: 1.04487 (Simulation time: 1 hr 27 min 33 sec) 
Heartbeat CPU 0 instructions: 1420000000 cycles: 1008329499 heartbeat IPC: 0.889768 cumulative IPC: 1.0429 (Simulation time: 1 hr 28 min 6 sec) 
Heartbeat CPU 0 instructions: 1430000003 cycles: 1018822105 heartbeat IPC: 0.953052 cumulative IPC: 1.04184 (Simulation time: 1 hr 28 min 51 sec) 
Heartbeat CPU 0 instructions: 1440000002 cycles: 1025080264 heartbeat IPC: 1.59791 cumulative IPC: 1.04571 (Simulation time: 1 hr 29 min 51 sec) 
Heartbeat CPU 0 instructions: 1450000004 cycles: 1030011362 heartbeat IPC: 2.02795 cumulative IPC: 1.05107 (Simulation time: 1 hr 30 min 31 sec) 
Heartbeat CPU 0 instructions: 1460000000 cycles: 1036865232 heartbeat IPC: 1.45903 cumulative IPC: 1.05414 (Simulation time: 1 hr 31 min 12 sec) 
Heartbeat CPU 0 instructions: 1470000003 cycles: 1047439517 heartbeat IPC: 0.945691 cumulative IPC: 1.05289 (Simulation time: 1 hr 31 min 44 sec) 
Heartbeat CPU 0 instructions: 1480000001 cycles: 1058148986 heartbeat IPC: 0.933753 cumulative IPC: 1.05153 (Simulation time: 1 hr 32 min 16 sec) 
Heartbeat CPU 0 instructions: 1490000000 cycles: 1068891487 heartbeat IPC: 0.930882 cumulative IPC: 1.05015 (Simulation time: 1 hr 32 min 48 sec) 
Heartbeat CPU 0 instructions: 1500000004 cycles: 1080059627 heartbeat IPC: 0.895405 cumulative IPC: 1.04834 (Simulation time: 1 hr 33 min 21 sec) 
Heartbeat CPU 0 instructions: 1510000003 cycles: 1091459646 heartbeat IPC: 0.877191 cumulative IPC: 1.04632 (Simulation time: 1 hr 33 min 54 sec) 
Heartbeat CPU 0 instructions: 1520000002 cycles: 1100535721 heartbeat IPC: 1.1018 cumulative IPC: 1.04683 (Simulation time: 1 hr 34 min 49 sec) 
Heartbeat CPU 0 instructions: 1530000003 cycles: 1106597748 heartbeat IPC: 1.64961 cumulative IPC: 1.05056 (Simulation time: 1 hr 35 min 44 sec) 
Heartbeat CPU 0 instructions: 1540000002 cycles: 1111894827 heartbeat IPC: 1.88783 cumulative IPC: 1.05506 (Simulation time: 1 hr 36 min 28 sec) 
Heartbeat CPU 0 instructions: 1550000003 cycles: 1120689280 heartbeat IPC: 1.13708 cumulative IPC: 1.05579 (Simulation time: 1 hr 37 min 3 sec) 
Heartbeat CPU 0 instructions: 1560000000 cycles: 1131822184 heartbeat IPC: 0.898238 cumulative IPC: 1.05404 (Simulation time: 1 hr 37 min 35 sec) 
Heartbeat CPU 0 instructions: 1570000000 cycles: 1142857726 heartbeat IPC: 0.906163 cumulative IPC: 1.05244 (Simulation time: 1 hr 38 min 8 sec) 
Heartbeat CPU 0 instructions: 1580000003 cycles: 1153954928 heartbeat IPC: 0.901128 cumulative IPC: 1.0508 (Simulation time: 1 hr 38 min 41 sec) 
Heartbeat CPU 0 instructions: 1590000004 cycles: 1165059312 heartbeat IPC: 0.900545 cumulative IPC: 1.0492 (Simulation time: 1 hr 39 min 13 sec) 
Heartbeat CPU 0 instructions: 1600000001 cycles: 1172291121 heartbeat IPC: 1.38278 cumulative IPC: 1.0515 (Simulation time: 1 hr 40 min 23 sec) 
Heartbeat CPU 0 instructions: 1610000001 cycles: 1177925486 heartbeat IPC: 1.77482 cumulative IPC: 1.05538 (Simulation time: 1 hr 41 min 11 sec) 
Heartbeat CPU 0 instructions: 1620000002 cycles: 1184736837 heartbeat IPC: 1.46814 cumulative IPC: 1.05803 (Simulation time: 1 hr 41 min 53 sec) 
Heartbeat CPU 0 instructions: 1630000004 cycles: 1195596241 heartbeat IPC: 0.920861 cumulative IPC: 1.05664 (Simulation time: 1 hr 42 min 25 sec) 
Heartbeat CPU 0 instructions: 1640000002 cycles: 1206485988 heartbeat IPC: 0.918295 cumulative IPC: 1.05525 (Simulation time: 1 hr 42 min 57 sec) 
Heartbeat CPU 0 instructions: 1650000002 cycles: 1217671344 heartbeat IPC: 0.894026 cumulative IPC: 1.05359 (Simulation time: 1 hr 43 min 30 sec) 
Heartbeat CPU 0 instructions: 1660000000 cycles: 1228823353 heartbeat IPC: 0.896699 cumulative IPC: 1.05201 (Simulation time: 1 hr 44 min 3 sec) 
Heartbeat CPU 0 instructions: 1670000003 cycles: 1239643668 heartbeat IPC: 0.924188 cumulative IPC: 1.05077 (Simulation time: 1 hr 44 min 42 sec) 
Heartbeat CPU 0 instructions: 1680000004 cycles: 1245704418 heartbeat IPC: 1.64996 cumulative IPC: 1.05401 (Simulation time: 1 hr 45 min 43 sec) 
Heartbeat CPU 0 instructions: 1690000003 cycles: 1250895977 heartbeat IPC: 1.9262 cumulative IPC: 1.05804 (Simulation time: 1 hr 46 min 27 sec) 
Heartbeat CPU 0 instructions: 1700000000 cycles: 1257467140 heartbeat IPC: 1.5218 cumulative IPC: 1.06073 (Simulation time: 1 hr 47 min 3 sec) 
Heartbeat CPU 0 instructions: 1710000001 cycles: 1268453195 heartbeat IPC: 0.910245 cumulative IPC: 1.05928 (Simulation time: 1 hr 47 min 36 sec) 
Heartbeat CPU 0 instructions: 1720000004 cycles: 1279529809 heartbeat IPC: 0.902803 cumulative IPC: 1.05778 (Simulation time: 1 hr 48 min 8 sec) 
Heartbeat CPU 0 instructions: 1730000000 cycles: 1290769517 heartbeat IPC: 0.889702 cumulative IPC: 1.05616 (Simulation time: 1 hr 48 min 41 sec) 
Heartbeat CPU 0 instructions: 1740000001 cycles: 1301898200 heartbeat IPC: 0.898579 cumulative IPC: 1.05467 (Simulation time: 1 hr 49 min 14 sec) 
Heartbeat CPU 0 instructions: 1750000000 cycles: 1311499729 heartbeat IPC: 1.0415 cumulative IPC: 1.05456 (Simulation time: 1 hr 50 min 7 sec) 
Heartbeat CPU 0 instructions: 1760000004 cycles: 1317202356 heartbeat IPC: 1.75358 cumulative IPC: 1.05791 (Simulation time: 1 hr 50 min 59 sec) 
Heartbeat CPU 0 instructions: 1770000001 cycles: 1322492333 heartbeat IPC: 1.89037 cumulative IPC: 1.06159 (Simulation time: 1 hr 51 min 42 sec) 
Heartbeat CPU 0 instructions: 1780000001 cycles: 1331407723 heartbeat IPC: 1.12166 cumulative IPC: 1.06203 (Simulation time: 1 hr 52 min 18 sec) 
Heartbeat CPU 0 instructions: 1790000000 cycles: 1342086427 heartbeat IPC: 0.936443 cumulative IPC: 1.06093 (Simulation time: 1 hr 52 min 50 sec) 
Heartbeat CPU 0 instructions: 1800000003 cycles: 1352412945 heartbeat IPC: 0.968381 cumulative IPC: 1.06015 (Simulation time: 1 hr 53 min 21 sec) 
Heartbeat CPU 0 instructions: 1810000004 cycles: 1361432820 heartbeat IPC: 1.10866 cumulative IPC: 1.0605 (Simulation time: 1 hr 54 min 16 sec) 
Heartbeat CPU 0 instructions: 1820000000 cycles: 1368486707 heartbeat IPC: 1.41766 cumulative IPC: 1.06253 (Simulation time: 1 hr 55 min 20 sec) 
Heartbeat CPU 0 instructions: 1830000002 cycles: 1374952042 heartbeat IPC: 1.54671 cumulative IPC: 1.06504 (Simulation time: 1 hr 56 min 16 sec) 
Heartbeat CPU 0 instructions: 1840000002 cycles: 1384727557 heartbeat IPC: 1.02296 cumulative IPC: 1.06471 (Simulation time: 1 hr 56 min 53 sec) 
Heartbeat CPU 0 instructions: 1850000004 cycles: 1395458356 heartbeat IPC: 0.931897 cumulative IPC: 1.06359 (Simulation time: 1 hr 57 min 25 sec) 
Heartbeat CPU 0 instructions: 1860000000 cycles: 1406417696 heartbeat IPC: 0.912463 cumulative IPC: 1.06229 (Simulation time: 1 hr 57 min 57 sec) 
Heartbeat CPU 0 instructions: 1870000000 cycles: 1417517700 heartbeat IPC: 0.900901 cumulative IPC: 1.06091 (Simulation time: 1 hr 58 min 30 sec) 
Heartbeat CPU 0 instructions: 1880000003 cycles: 1428220110 heartbeat IPC: 0.934369 cumulative IPC: 1.05987 (Simulation time: 1 hr 59 min 9 sec) 
Heartbeat CPU 0 instructions: 1890000002 cycles: 1434478915 heartbeat IPC: 1.59775 cumulative IPC: 1.06244 (Simulation time: 2 hr 0 min 12 sec) 
Heartbeat CPU 0 instructions: 1900000003 cycles: 1439500482 heartbeat IPC: 1.99141 cumulative IPC: 1.06599 (Simulation time: 2 hr 0 min 53 sec) 
Heartbeat CPU 0 instructions: 1910000001 cycles: 1446323064 heartbeat IPC: 1.46572 cumulative IPC: 1.06806 (Simulation time: 2 hr 1 min 30 sec) 
Heartbeat CPU 0 instructions: 1920000000 cycles: 1457001339 heartbeat IPC: 0.936481 cumulative IPC: 1.067 (Simulation time: 2 hr 2 min 2 sec) 
Heartbeat CPU 0 instructions: 1930000003 cycles: 1467996360 heartbeat IPC: 0.909503 cumulative IPC: 1.06571 (Simulation time: 2 hr 2 min 35 sec) 
Heartbeat CPU 0 instructions: 1940000002 cycles: 1479271373 heartbeat IPC: 0.886917 cumulative IPC: 1.06422 (Simulation time: 2 hr 3 min 7 sec) 
Heartbeat CPU 0 instructions: 1950000002 cycles: 1490431003 heartbeat IPC: 0.896087 cumulative IPC: 1.06285 (Simulation time: 2 hr 3 min 40 sec) 
Heartbeat CPU 0 instructions: 1960000000 cycles: 1498448279 heartbeat IPC: 1.24731 cumulative IPC: 1.06392 (Simulation time: 2 hr 4 min 44 sec) 
Heartbeat CPU 0 instructions: 1970000000 cycles: 1502977665 heartbeat IPC: 2.2078 cumulative IPC: 1.06769 (Simulation time: 2 hr 5 min 24 sec) 
Heartbeat CPU 0 instructions: 1980000000 cycles: 1508248407 heartbeat IPC: 1.89727 cumulative IPC: 1.07085 (Simulation time: 2 hr 6 min 2 sec) 
Heartbeat CPU 0 instructions: 1990000001 cycles: 1519131525 heartbeat IPC: 0.918854 cumulative IPC: 1.06966 (Simulation time: 2 hr 6 min 34 sec) 
*** Reached end of trace: traces/401.bzip2-277B.champsimtrace.xz
Heartbeat CPU 0 instructions: 2000000002 cycles: 1530310868 heartbeat IPC: 0.894507 cumulative IPC: 1.06827 (Simulation time: 2 hr 7 min 7 sec) 
Finished CPU 0 instructions: 1500000001 cycles: 1404140976 cumulative IPC: 1.06827 (Simulation time: 2 hr 7 min 7 sec) 

ChampSim completed all CPUs

Region of Interest Statistics

CPU 0 cumulative IPC: 1.06827 instructions: 1500000001 cycles: 1404140976
cpu0_DTLB TOTAL     ACCESS:  327853386  HIT:  318437611  MISS:    9415775
cpu0_DTLB LOAD      ACCESS:  203660289  HIT:  194375300  MISS:    9284989
cpu0_DTLB RFO       ACCESS:  124193097  HIT:  124062311  MISS:     130786
cpu0_DTLB PREFETCH  ACCESS:          0  HIT:          0  MISS:          0
cpu0_DTLB WRITEBACK ACCESS:          0  HIT:          0  MISS:          0
cpu0_DTLB TRANSLATION ACCESS:          0  HIT:          0  MISS:          0
cpu0_DTLB PREFETCH  REQUESTED:          0  ISSUED:          0  USEFUL:          0  USELESS:          0
cpu0_DTLB AVERAGE MISS LATENCY: 9.09916 cycles
cpu0_ITLB TOTAL     ACCESS:  108759057  HIT:  108759057  MISS:          0
cpu0_ITLB LOAD      ACCESS:  108759057  HIT:  108759057  MISS:          0
cpu0_ITLB RFO       ACCESS:          0  HIT:          0  MISS:          0
cpu0_ITLB PREFETCH  ACCESS:          0  HIT:          0  MISS:          0
cpu0_ITLB WRITEBACK ACCESS:          0  HIT:          0  MISS:          0
cpu0_ITLB TRANSLATION ACCESS:          0  HIT:          0  MISS:          0
cpu0_ITLB PREFETCH  REQUESTED:          0  ISSUED:          0  USEFUL:          0  USELESS:          0
cpu0_ITLB AVERAGE MISS LATENCY: -nan cycles
cpu0_L1I TOTAL     ACCESS:   91295062  HIT:   91295062  MISS:          0
cpu0_L1I LOAD      ACCESS:   91295062  HIT:   91295062  MISS:          0
cpu0_L1I RFO       ACCESS:          0  HIT:          0  MISS:          0
cpu0_L1I PREFETCH  ACCESS:          0  HIT:          0  MISS:          0
cpu0_L1I WRITEBACK ACCESS:          0  HIT:          0  MISS:          0
cpu0_L1I TRANSLATION ACCESS:          0  HIT:          0  MISS:          0
cpu0_L1I PREFETCH  REQUESTED:          0  ISSUED:          0  USEFUL:          0  USELESS:          0
cpu0_L1I AVERAGE MISS LATENCY: -nan cycles
cpu0_STLB TOTAL     ACCESS:    9415775  HIT:    9411571  MISS:       4204
cpu0_STLB LOAD      ACCESS:    9284989  HIT:    9284213  MISS:        776
cpu0_STLB RFO       ACCESS:     130786  HIT:     127358  MISS:       3428
cpu0_STLB PREFETCH  ACCESS:          0  HIT:          0  MISS:          0
cpu0_STLB WRITEBACK ACCESS:          0  HIT:          0  MISS:          0
cpu0_STLB TRANSLATION ACCESS:          0  HIT:          0  MISS:          0
cpu0_STLB PREFETCH  REQUESTED:          0  ISSUED:          0  USEFUL:          0  USELESS:          0
cpu0_STLB AVERAGE MISS LATENCY: 221.233 cycles
cpu0_L1D TOTAL     ACCESS:  348779472  HIT:  336684193  MISS:   12095279
cpu0_L1D LOAD      ACCESS:  206557974  HIT:  195763460  MISS:   10794514
cpu0_L1D RFO       ACCESS:  142217294  HIT:  140919964  MISS:    1297330
cpu0_L1D PREFETCH  ACCESS:          0  HIT:          0  MISS:          0
cpu0_L1D WRITEBACK ACCESS:          0  HIT:          0  MISS:          0
cpu0_L1D TRANSLATION ACCESS:       4204  HIT:        769  MISS:       3435
cpu0_L1D PREFETCH  REQUESTED:          0  ISSUED:          0  USEFUL:          0  USELESS:          0
cpu0_L1D AVERAGE MISS LATENCY: 84.165 cycles
cpu0_L2C TOTAL     ACCESS:   14353878  HIT:    6360035  MISS:    7993843
cpu0_L2C LOAD      ACCESS:   10794485  HIT:    3865065  MISS:    6929420
cpu0_L2C RFO       ACCESS:    1297330  HIT:     234047  MISS:    1063283
cpu0_L2C PREFETCH  ACCESS:          0  HIT:          0  MISS:          0
cpu0_L2C WRITEBACK ACCESS:    2258628  HIT:    2257571  MISS:       1057
cpu0_L2C TRANSLATION ACCESS:       3435  HIT:       3352  MISS:         83
cpu0_L2C PREFETCH  REQUESTED:          0  ISSUED:          0  USEFUL:          0  USELESS:          0
cpu0_L2C AVERAGE MISS LATENCY: 110.699 cycles
LLC TOTAL     ACCESS:    9896426  HIT:    6803128  MISS:    3093298
LLC LOAD      ACCESS:    6929414  HIT:    4625775  MISS:    2303639
LLC RFO       ACCESS:    1063282  HIT:     277796  MISS:     785486
LLC PREFETCH  ACCESS:          0  HIT:          0  MISS:          0
LLC WRITEBACK ACCESS:    1903647  HIT:    1899543  MISS:       4104
LLC TRANSLATION ACCESS:         83  HIT:         14  MISS:         69
LLC PREFETCH  REQUESTED:          0  ISSUED:          0  USEFUL:          0  USELESS:          0
LLC AVERAGE MISS LATENCY: 231.809 cycles
~~~~~~~~~~Reuse Distance Profiler output~~~~~~~~~~
0	69067792	23774720
1	53215056	24991504
2	51665824	23016832
3	40142464	19292448
4	28286176	13613952
5	16534224	9327648
6	12466896	7198592
7	10243904	7010272
8	8355888	5233696
9	6977136	3821360
10	5681648	2856768
11	5456016	2858704
12	5124736	2923728
13	4781152	3411744
14	4008032	2832784
15	4120816	3139952
16	4035552	2993472
17	3813024	3022864
18	2918160	2261536
19	2920640	2273312
20	3260096	2341248
21	2807552	1968080
22	2617456	1925408
23	2446624	1870752
24	2189536	1723968
25	2169904	1680016
26	2269952	1800736
27	2143232	1671536
28	2035024	1558320
29	2050336	1638224
30	1908640	1531904
31	2017440	1587104
32	2101280	1638944
33	1957072	1522256
34	1850512	1467344
35	1819520	1432736
36	1745296	1347232
37	1663712	1275888
38	1751392	1378992
39	1592768	1249840
40	1574512	1249248
41	1638544	1280048
42	1543312	1200352
43	1461696	1156416
44	1461040	1164640
45	1376240	1096144
46	1333824	1035104
47	1373152	1077152
48	1302480	1015696
49	1227216	966256
50	1259104	1008560
51	1165936	921872
52	1125584	882976
53	1159968	923200
54	1049856	835152
55	1012960	812576
56	1032992	840096
57	953808	766416
58	930640	746592
59	951616	773968
60	874256	701744
61	851104	688400
62	871472	715648
63	803344	650960
64	1590816	1298880
66	1455520	1185584
68	1430416	1176592
70	1348912	1112992
72	1256736	1035232
74	1241440	1030640
76	1195552	990288
78	1122416	911648
80	1134096	913568
82	1093056	863504
84	1010624	791120
86	1000208	794416
88	924768	750928
90	830048	689504
92	783744	674256
94	717456	635392
96	638112	574992
98	623984	573312
100	568064	530704
102	497648	466000
104	487728	461008
106	455280	430288
108	401088	378720
110	397248	377168
112	376544	359440
114	328400	312320
116	340736	328256
118	319328	308080
120	268032	258784
122	276336	268704
124	271376	265472
126	228944	222896
128	483680	474160
132	423088	415200
136	386272	379472
140	381664	373888
144	332464	323088
148	300896	295792
152	299680	296304
156	270224	267232
160	253456	250736
164	251808	249392
168	228144	225696
172	210304	208224
176	207696	205904
180	198448	196912
184	198848	197440
188	183280	181552
192	166048	164816
196	157552	156224
200	160976	159664
204	151824	150592
208	140880	139984
212	142224	141056
216	134496	133328
220	131184	130144
224	125120	124096
228	116928	116016
232	112848	111952
236	113024	111968
240	105200	104432
244	99776	98960
248	98240	97456
252	93568	92640
256	186400	183072
264	165920	164320
272	163520	162128
280	158000	156624
288	147120	145808
296	140384	138928
304	137616	136544
312	124672	123584
320	118912	117888
328	120112	119216
336	112992	111968
344	107632	106720
352	102000	101280
360	101776	100768
368	98576	97792
376	97488	96736
384	93680	93136
392	93984	93168
400	92640	91824
408	84528	83792
416	86880	86144
424	81856	81024
432	79456	78800
440	77648	76832
448	79008	78432
456	72816	72192
464	74352	73680
472	74496	73968
480	73616	72928
488	71248	70640
496	71488	70928
504	67600	67040
512	132624	131568
528	119200	118112
544	119264	117824
560	121568	120352
576	114544	113312
592	98640	97552
608	92608	91760
624	88832	87520
640	89824	88768
656	83504	82656
672	81392	80464
688	79920	79248
704	73392	72800
720	83536	77680
736	78048	77296
752	76240	74240
768	68768	66640
784	66784	66080
800	65936	65072
816	69504	68736
832	63632	63056
848	61744	61152
864	60432	59968
880	59648	59296
896	63520	63056
912	62960	61632
928	55824	53744
944	52896	52544
960	51936	51344
976	50240	49696
992	46320	45808
1008	46272	45776
1024	87808	86816
1056	84464	83600
1088	93024	89920
1120	88528	87280
1152	88992	88272
1184	92608	91680
1216	95584	95056
1248	88384	87664
1280	82272	78160
1312	75760	74192
1344	70608	69168
1376	69056	68112
1408	64080	63392
1440	65760	64624
1472	64032	61264
1504	62288	61760
1536	59760	58768
1568	64400	63712
1600	64608	64048
1632	69952	67824
1664	67760	66272
1696	60672	60176
1728	60688	59904
1760	58192	57664
1792	55632	55120
1824	60688	58048
1856	57296	56784
1888	55008	54544
1920	55296	54752
1952	54848	54384
1984	59088	58432
2016	56016	53408
2048	98144	97392
2112	89088	87888
2176	89616	86432
2240	85136	84208
2304	80016	79008
2368	81584	78512
2432	68112	67024
2496	64256	63424
2560	62256	59248
2624	55568	54608
2688	54912	53360
2752	53776	51328
2816	53392	52448
2880	50656	48416
2944	46304	45088
3008	45216	44304
3072	47280	44400
3136	42416	41408
3200	43824	42736
3264	45408	42528
3328	40928	40048
3392	41456	40448
3456	43616	40608
3520	38480	37712
3584	39840	38544
3648	38144	35424
3712	36928	36064
3776	38448	37232
3840	38688	36112
3904	36928	36000
3968	37248	35376
4032	36256	34592
4096	72768	69648
4224	66880	65168
4352	66944	63920
4480	64704	61328
4608	63984	61728
4736	59200	55904
4864	58256	54800
4992	56384	53696
5120	53056	50352
5248	54816	51568
5376	54384	50736
5504	52832	50704
5632	50608	47232
5760	50048	46720
5888	49888	47408
6016	46928	44256
6144	49808	45984
6272	45632	42480
6400	44368	42480
6528	45440	42224
6656	45200	41488
6784	45488	43600
6912	41344	38528
7040	43008	39488
7168	41424	38496
7296	38592	36304
7424	40832	37456
7552	38944	35712
7680	36320	34688
7808	37328	34112
7936	37760	34032
8064	35552	33424
8192	70992	64960
8448	66192	61808
8704	68944	61760
8960	63824	58592
9216	64688	58624
9472	61376	55488
9728	59008	54000
9984	59408	52304
10240	57952	52496
10496	59056	53392
10752	57936	52384
11008	53408	48288
11264	57264	50336
11520	53424	47920
11776	58144	51984
12032	56352	50000
12288	55696	49824
12544	57072	51024
12800	50592	45440
13056	49696	43648
13312	47936	42192
13568	47696	42240
13824	47424	42128
14080	46800	40720
14336	45632	40160
14592	47920	42784
14848	64224	52240
15104	37152	36368
15360	35168	35088
15616	40544	40464
15872	30880	30832
16128	29744	29648
16384	61312	61088
16896	60272	60048
17408	55728	55536
17920	54416	54288
18432	56256	56112
18944	53760	53648
19456	51056	51008
19968	51024	50912
20480	49904	49824
20992	48848	48736
21504	47728	47616
22016	45184	44976
22528	47008	46880
23040	41952	41760
23552	47024	46928
24064	41104	40992
24576	44528	44496
25088	42688	42608
25600	40288	40208
26112	39824	39696
26624	40960	40864
27136	37904	37824
27648	36880	36688
28160	36464	36352
28672	38160	38032
29184	38144	38096
29696	36160	35968
30208	35568	35456
30720	38064	37984
31232	37344	37312
31744	33232	33104
32256	32016	31984
32768	70240	69984
33792	67216	66976
34816	59792	59552
35840	60448	60208
36864	59808	59680
37888	58656	58528
38912	55728	55520
39936	54864	54704
40960	55680	55424
41984	54848	54720
43008	52496	52432
44032	52736	52528
45056	50768	50592
46080	49216	49008
47104	49120	48896
48128	46976	46864
49152	45888	45664
50176	46736	46576
51200	44784	44512
52224	43184	42880
53248	46432	46272
54272	45808	45584
55296	44528	44352
56320	41216	41024
57344	41680	41472
58368	40512	40352
59392	39488	39344
60416	40848	40656
61440	44928	44720
62464	40512	40336
63488	35984	35872
64512	38128	38000
65536	77520	77056
67584	77648	77200
69632	73056	72688
71680	74384	74112
73728	71936	71616
75776	71696	71456
77824	70384	70096
79872	66144	65792
81920	64544	64048
83968	64000	63504
86016	60880	60528
88064	59616	59232
90112	58608	58352
92160	57712	57408
94208	57408	56992
96256	57296	57008
98304	55744	55344
100352	52064	51744
102400	51440	51088
104448	50528	50112
106496	50560	50272
108544	51120	50848
110592	50240	49968
112640	49520	49120
114688	46992	46784
116736	48496	48192
118784	48112	47680
120832	48528	48112
122880	46064	45680
124928	44928	44608
126976	42352	42080
129024	44240	43936
131072	86416	85776
135168	81936	81344
139264	79648	78944
143360	78640	77968
147456	74432	73680
151552	73280	72400
155648	72192	71264
159744	68032	67280
163840	65840	65040
167936	63488	62560
172032	62224	61424
176128	61088	60176
180224	61248	60336
184320	58000	57056
188416	60224	59440
192512	56608	55824
196608	63888	62960
200704	52496	51648
204800	51792	50800
208896	51952	51184
212992	51296	50512
217088	50528	49632
221184	48096	47184
225280	48896	47984
229376	47888	47168
233472	45376	44480
237568	44624	43840
241664	43056	42032
245760	42912	42048
249856	40080	39248
253952	40416	39584
258048	39616	38912
262144	77200	75648
270336	71584	69856
278528	72000	70800
286720	67824	66176
294912	66976	65184
303104	62064	60288
311296	62288	60784
319488	62288	60592
327680	60672	59088
335872	65216	63552
344064	56640	54928
352256	55008	53056
360448	52432	50976
368640	52288	50656
376832	51760	50208
385024	49600	48304
393216	46272	45200
401408	48704	47216
409600	60960	59504
417792	50800	49616
425984	43136	42272
434176	40384	39568
442368	38688	37920
450560	37376	36672
458752	40240	39600
466944	36560	36000
475136	33344	32976
483328	32320	31808
491520	33184	32816
499712	31456	31136
507904	29680	29296
516096	29952	29488
524288	56160	54992
540672	56992	55888
557056	51888	51008
573440	50928	49984
589824	50544	49648
606208	49120	48432
622592	45040	44320
638976	43200	42416
655360	44096	43520
671744	38400	37408
688128	37952	37280
704512	38416	37680
720896	36064	35424
737280	36528	35648
753664	34256	33104
770048	32080	31104
786432	30672	29536
802816	31168	30320
819200	29392	28384
835584	29216	28080
851968	28032	26752
868352	27504	26112
884736	24480	23376
901120	24864	23344
917504	24080	22896
933888	30672	29456
950272	21568	20368
966656	21088	19728
983040	23168	21872
999424	20320	19024
1015808	21632	19968
1032192	21808	20336
1048576	43776	40496
1081344	40480	36752
1114112	38496	35264
1146880	35504	32496
1179648	35328	32080
1212416	34800	31376
1245184	32736	29824
1277952	32528	28560
1310720	34896	31168
1343488	33424	29744
1376256	33696	30528
1409024	31424	28880
1441792	33456	30448
1474560	28336	25600
1507328	27120	24224
1540096	24816	21568
1572864	23072	20080
1605632	20880	18144
1638400	20560	17888
1671168	20528	17568
1703936	19392	17056
1736704	18048	15184
1769472	17968	15168
1802240	20512	17776
1835008	19392	16912
1867776	21120	18224
1900544	19776	17184
1933312	18048	15712
1966080	17616	15088
1998848	17984	15024
2031616	15392	13008
2064384	17600	15104
2097152	33408	28064
2162688	27888	22032
2228224	30592	25072
2293760	24720	19232
2359296	26752	21856
2424832	24944	19664
2490368	21680	16816
2555904	21664	17152
2621440	18768	14864
2686976	20352	15872
2752512	21120	16880
2818048	18528	14336
2883584	18976	14512
2949120	17520	13104
3014656	16976	13168
3080192	15136	11584
3145728	16816	12592
3211264	15776	11648
3276800	17536	12400
3342336	18432	13360
3407872	15328	10992
3473408	15104	10960
3538944	15520	11808
3604480	15168	11424
3670016	14032	10560
3735552	15520	11200
3801088	15824	11728
3866624	14912	10944
3932160	14224	10304
3997696	15232	11120
4063232	13040	8608
4128768	14080	9504
4194304	28192	19712
4325376	33008	23408
4456448	27136	17760
4587520	27056	18480
4718592	29568	21328
4849664	24240	16000
4980736	26992	17968
5111808	24288	15664
5242880	22352	13136
5373952	25824	16496
5505024	22800	13424
5636096	27632	18272
5767168	24256	13536
5898240	26880	16112
6029312	26688	15952
6160384	29520	17648
6291456	29008	19152
6422528	26096	14384
6553600	26288	13760
6684672	25072	11536
6815744	27664	14352
6946816	26000	12240
7077888	26848	12416
7208960	29184	15200
7340032	29632	16096
7471104	27776	14784
7602176	28480	12880
7733248	25984	11616
7864320	27728	11984
7995392	22656	9456
8126464	26864	12400
8257536	27088	13168
8388608	49904	22848
8650752	48128	22144
8912896	46336	21168
9175040	44336	19424
9437184	41840	16016
9699328	43904	19216
9961472	41520	17456
10223616	42096	15472
10485760	46144	17568
10747904	40432	13952
11010048	37504	13552
11272192	36176	13152
11534336	39760	18448
11796480	34000	13872
12058624	33008	14512
12320768	35120	15552
12582912	30368	13600
12845056	25280	9856
13107200	25328	10832
13369344	19472	6736
13631488	17552	5360
13893632	14880	5488
14155776	12768	5376
14417920	14032	6416
14680064	11136	4608
14942208	9472	3664
15204352	13168	7024
15466496	7632	2016
15728640	5936	1984
15990784	3696	320
16252928	1648	0
16515072	768	48
16777216	688	0
17301504	1088	288
17825792	848	144
18350080	336	0
18874368	64	0
19398656	544	0
19922944	656	0
20447232	48	0
20971520	16	0
21495808	16	0
22020096	16	0
22544384	16	0
23068672	0	0
23592960	0	0
24117248	0	0
24641536	16	0
25165824	0	0
25690112	0	0
26214400	0	0
26738688	0	0
27262976	0	0
27787264	0	0
28311552	0	0
28835840	0	0
29360128	16	0
29884416	0	0
30408704	32	0
30932992	0	0
31457280	0	0
31981568	0	0
32505856	0	0
33030144	0	0
33554432	0	0
34603008	32	0
35651584	0	0
36700160	0	0
37748736	0	0
38797312	0	0
39845888	0	0
40894464	0	0
41943040	0	0
42991616	0	0
44040192	0	0
45088768	0	0
46137344	0	0
47185920	0	0
48234496	0	0
49283072	0	0
50331648	0	0
51380224	0	0
52428800	16	0
53477376	0	0
54525952	0	0
55574528	0	0
56623104	16	0
57671680	0	0
58720256	0	0
59768832	0	0
60817408	0	0
61865984	0	0
62914560	0	0
63963136	0	0
65011712	0	0
66060288	0	0
67108864	16	0
69206016	0	0
71303168	0	0
73400320	0	0
75497472	32	0
77594624	0	0
79691776	0	0
81788928	0	0
83886080	0	0
85983232	0	0
88080384	0	0
90177536	0	0
92274688	0	0
94371840	0	0
96468992	0	0
98566144	32	0
100663296	0	0
102760448	16	0
104857600	0	0
106954752	0	0
109051904	0	0
111149056	0	0
113246208	0	0
115343360	0	0
117440512	0	0
119537664	0	0
121634816	16	0
123731968	0	0
125829120	0	0
127926272	0	0
130023424	0	0
132120576	0	0
134217728	16	0
138412032	0	0
142606336	0	0
146800640	0	0
150994944	0	0
155189248	0	0
159383552	0	0
163577856	0	0
167772160	0	0
171966464	0	0
176160768	0	0
180355072	0	0
184549376	0	0
188743680	0	0
192937984	0	0
197132288	0	0
201326592	0	0
205520896	0	0
209715200	0	0
213909504	0	0
218103808	0	0
222298112	0	0
226492416	0	0
230686720	0	0
234881024	0	0
239075328	0	0
243269632	0	0
247463936	0	0
251658240	0	0
255852544	0	0
260046848	0	0
264241152	0	0
268435456	0	0
276824064	0	0
285212672	0	0
293601280	0	0
301989888	0	0
310378496	0	0
318767104	0	0
327155712	0	0
335544320	0	0
343932928	0	0
352321536	0	0
360710144	0	0
369098752	0	0
377487360	0	0
385875968	0	0
394264576	0	0
402653184	0	0
411041792	0	0
419430400	0	0
427819008	0	0
436207616	0	0
444596224	0	0
452984832	0	0
461373440	0	0
469762048	0	0
478150656	0	0
486539264	0	0
494927872	0	0
503316480	0	0
511705088	0	0
520093696	0	0
528482304	0	0
536870912	0	0
553648128	0	0
570425344	0	0
587202560	0	0
603979776	0	0
620756992	0	0
637534208	0	0
654311424	0	0
671088640	0	0
687865856	0	0
704643072	0	0
721420288	0	0
738197504	0	0
754974720	0	0
771751936	0	0
788529152	0	0
805306368	0	0
822083584	0	0
838860800	0	0
855638016	0	0
872415232	0	0
889192448	0	0
905969664	0	0
922746880	0	0
939524096	0	0
956301312	0	0
973078528	0	0
989855744	0	0
1006632960	0	0
1023410176	0	0
1040187392	0	0
1056964608	0	0
1073741824	0	0
1107296256	0	0
1140850688	0	0
1174405120	0	0
1207959552	0	0
1241513984	0	0
1275068416	0	0
1308622848	0	0
1342177280	0	0
1375731712	0	0
1409286144	0	0
1442840576	0	0
1476395008	0	0
1509949440	0	0
1543503872	0	0
1577058304	0	0
1610612736	0	0
1644167168	0	0
1677721600	0	0
1711276032	0	0
1744830464	0	0
1778384896	0	0
1811939328	0	0
1845493760	0	0
1879048192	0	0
1912602624	0	0
1946157056	0	0
1979711488	0	0
2013265920	0	0
2046820352	0	0
2080374784	0	0
2113929216	0	0
2147483648	0	0
2214592512	0	0
2281701376	0	0
2348810240	0	0
2415919104	0	0
2483027968	0	0
2550136832	0	0
2617245696	0	0
2684354560	0	0
2751463424	0	0
2818572288	0	0
2885681152	0	0
2952790016	0	0
3019898880	0	0
3087007744	0	0
3154116608	0	0
3221225472	0	0
3288334336	0	0
3355443200	0	0
3422552064	0	0
3489660928	0	0
3556769792	0	0
3623878656	0	0
3690987520	0	0
3758096384	0	0
3825205248	0	0
3892314112	0	0
3959422976	0	0
4026531840	0	0
4093640704	0	0
4160749568	0	0
4227858432	0	0
~~~~~~~~~~Reuse Distance Profiler output end~~~~~~~~~~

DRAM Statistics
 CHANNEL 0
 RQ ROW_BUFFER_HIT:     313174  ROW_BUFFER_MISS:    2772789
 DBUS AVG_CONGESTED_CYCLE:    3.94202
 WQ ROW_BUFFER_HIT:     146219  ROW_BUFFER_MISS:    1507301  FULL:          0


CPU 0 Branch Prediction Accuracy: 87.7261% MPKI: 19.6456 Average ROB Occupancy at Mispredict: 16.0671
Branch type MPKI
BRANCH_DIRECT_JUMP: 6.66667e-07
BRANCH_INDIRECT: 0.000310667
BRANCH_CONDITIONAL: 19.6453
BRANCH_DIRECT_CALL: 0
BRANCH_INDIRECT_CALL: 0
BRANCH_RETURN: 0

