
*** ChampSim Multicore Out-of-Order Simulator ***

Warmup Instructions: 500000000
Simulation Instructions: 1500000000
Number of CPUs: 1
Off-chip DRAM Size: 4 GiB Channels: 1 Width: 64-bit Data Rate: 3200 MT/s

VirtualMemory physical capacity: 8588881920 num_ppages: 2096895
VirtualMemory page size: 4096 log2_page_size: 12

CPU 0 runs traces/401.bzip2-226B.champsimtrace.xz
CPU 0 Bimodal branch predictor
Basic BTB sets: 1024 ways: 8 indirect buffer size: 4096 RAS size: 64
Initializing LRU.
Initializing LRU.
Initializing LRU.
Initializing LRU.
Initializing rdLRU.
Initializing LRU.
Initializing LRU.
Heartbeat CPU 0 instructions: 10000002 cycles: 2519543 heartbeat IPC: 3.96897 cumulative IPC: 3.96897 (Simulation time: 0 hr 0 min 31 sec) 
Heartbeat CPU 0 instructions: 20000002 cycles: 5036172 heartbeat IPC: 3.97357 cumulative IPC: 3.97127 (Simulation time: 0 hr 1 min 3 sec) 
Heartbeat CPU 0 instructions: 30000000 cycles: 7568838 heartbeat IPC: 3.94841 cumulative IPC: 3.96362 (Simulation time: 0 hr 1 min 34 sec) 
Heartbeat CPU 0 instructions: 40000001 cycles: 10201067 heartbeat IPC: 3.79906 cumulative IPC: 3.92116 (Simulation time: 0 hr 2 min 8 sec) 
Heartbeat CPU 0 instructions: 50000004 cycles: 13349352 heartbeat IPC: 3.17633 cumulative IPC: 3.7455 (Simulation time: 0 hr 2 min 52 sec) 
Heartbeat CPU 0 instructions: 60000000 cycles: 16543269 heartbeat IPC: 3.13095 cumulative IPC: 3.62685 (Simulation time: 0 hr 3 min 37 sec) 
Heartbeat CPU 0 instructions: 70000002 cycles: 19709803 heartbeat IPC: 3.15803 cumulative IPC: 3.55153 (Simulation time: 0 hr 4 min 21 sec) 
Heartbeat CPU 0 instructions: 80000000 cycles: 22633537 heartbeat IPC: 3.42028 cumulative IPC: 3.53458 (Simulation time: 0 hr 5 min 1 sec) 
Heartbeat CPU 0 instructions: 90000003 cycles: 25649313 heartbeat IPC: 3.3159 cumulative IPC: 3.50887 (Simulation time: 0 hr 5 min 43 sec) 
Heartbeat CPU 0 instructions: 100000002 cycles: 28821034 heartbeat IPC: 3.15286 cumulative IPC: 3.46969 (Simulation time: 0 hr 6 min 28 sec) 
Heartbeat CPU 0 instructions: 110000000 cycles: 31785265 heartbeat IPC: 3.37356 cumulative IPC: 3.46072 (Simulation time: 0 hr 7 min 9 sec) 
Heartbeat CPU 0 instructions: 120000000 cycles: 34668906 heartbeat IPC: 3.46784 cumulative IPC: 3.46131 (Simulation time: 0 hr 7 min 49 sec) 
Heartbeat CPU 0 instructions: 130000001 cycles: 37641930 heartbeat IPC: 3.36358 cumulative IPC: 3.4536 (Simulation time: 0 hr 8 min 30 sec) 
Heartbeat CPU 0 instructions: 140000002 cycles: 40578810 heartbeat IPC: 3.40497 cumulative IPC: 3.45008 (Simulation time: 0 hr 9 min 10 sec) 
Heartbeat CPU 0 instructions: 150000000 cycles: 43570118 heartbeat IPC: 3.34302 cumulative IPC: 3.44273 (Simulation time: 0 hr 9 min 51 sec) 
Heartbeat CPU 0 instructions: 160000003 cycles: 46449497 heartbeat IPC: 3.47297 cumulative IPC: 3.4446 (Simulation time: 0 hr 10 min 31 sec) 
Heartbeat CPU 0 instructions: 170000002 cycles: 49396434 heartbeat IPC: 3.39335 cumulative IPC: 3.44154 (Simulation time: 0 hr 11 min 12 sec) 
Heartbeat CPU 0 instructions: 180000003 cycles: 52556649 heartbeat IPC: 3.16434 cumulative IPC: 3.42488 (Simulation time: 0 hr 11 min 56 sec) 
Heartbeat CPU 0 instructions: 190000001 cycles: 55442604 heartbeat IPC: 3.46506 cumulative IPC: 3.42697 (Simulation time: 0 hr 12 min 36 sec) 
Heartbeat CPU 0 instructions: 200000004 cycles: 58465280 heartbeat IPC: 3.30833 cumulative IPC: 3.42083 (Simulation time: 0 hr 13 min 18 sec) 
Heartbeat CPU 0 instructions: 210000003 cycles: 61272448 heartbeat IPC: 3.56231 cumulative IPC: 3.42732 (Simulation time: 0 hr 13 min 56 sec) 
Heartbeat CPU 0 instructions: 220000003 cycles: 64120960 heartbeat IPC: 3.5106 cumulative IPC: 3.43102 (Simulation time: 0 hr 14 min 29 sec) 
Heartbeat CPU 0 instructions: 230000003 cycles: 66630263 heartbeat IPC: 3.98517 cumulative IPC: 3.45188 (Simulation time: 0 hr 14 min 56 sec) 
Heartbeat CPU 0 instructions: 240000000 cycles: 69303907 heartbeat IPC: 3.74021 cumulative IPC: 3.46301 (Simulation time: 0 hr 15 min 28 sec) 
Heartbeat CPU 0 instructions: 250000003 cycles: 72728282 heartbeat IPC: 2.92024 cumulative IPC: 3.43745 (Simulation time: 0 hr 16 min 21 sec) 
Heartbeat CPU 0 instructions: 260000001 cycles: 75975177 heartbeat IPC: 3.07986 cumulative IPC: 3.42217 (Simulation time: 0 hr 17 min 8 sec) 
Heartbeat CPU 0 instructions: 270000003 cycles: 78667923 heartbeat IPC: 3.71368 cumulative IPC: 3.43215 (Simulation time: 0 hr 17 min 38 sec) 
Heartbeat CPU 0 instructions: 280000004 cycles: 81187267 heartbeat IPC: 3.96929 cumulative IPC: 3.44882 (Simulation time: 0 hr 18 min 10 sec) 
Heartbeat CPU 0 instructions: 290000002 cycles: 83706341 heartbeat IPC: 3.96971 cumulative IPC: 3.46449 (Simulation time: 0 hr 18 min 41 sec) 
Heartbeat CPU 0 instructions: 300000000 cycles: 86225367 heartbeat IPC: 3.96979 cumulative IPC: 3.47925 (Simulation time: 0 hr 19 min 13 sec) 
Heartbeat CPU 0 instructions: 310000000 cycles: 88740762 heartbeat IPC: 3.97552 cumulative IPC: 3.49332 (Simulation time: 0 hr 19 min 45 sec) 
Heartbeat CPU 0 instructions: 320000001 cycles: 91273428 heartbeat IPC: 3.94841 cumulative IPC: 3.50595 (Simulation time: 0 hr 20 min 16 sec) 
Heartbeat CPU 0 instructions: 330000004 cycles: 94005488 heartbeat IPC: 3.66024 cumulative IPC: 3.51043 (Simulation time: 0 hr 20 min 51 sec) 
Heartbeat CPU 0 instructions: 340000000 cycles: 97058171 heartbeat IPC: 3.27581 cumulative IPC: 3.50305 (Simulation time: 0 hr 21 min 34 sec) 
Heartbeat CPU 0 instructions: 350000002 cycles: 100439781 heartbeat IPC: 2.95717 cumulative IPC: 3.48468 (Simulation time: 0 hr 22 min 22 sec) 
Heartbeat CPU 0 instructions: 360000003 cycles: 103507545 heartbeat IPC: 3.2597 cumulative IPC: 3.47801 (Simulation time: 0 hr 23 min 7 sec) 
Heartbeat CPU 0 instructions: 370000002 cycles: 106637650 heartbeat IPC: 3.19478 cumulative IPC: 3.46969 (Simulation time: 0 hr 23 min 52 sec) 
Heartbeat CPU 0 instructions: 380000001 cycles: 109543007 heartbeat IPC: 3.44192 cumulative IPC: 3.46896 (Simulation time: 0 hr 24 min 33 sec) 
Heartbeat CPU 0 instructions: 390000003 cycles: 112686317 heartbeat IPC: 3.18136 cumulative IPC: 3.46093 (Simulation time: 0 hr 25 min 17 sec) 
Heartbeat CPU 0 instructions: 400000002 cycles: 115665535 heartbeat IPC: 3.35659 cumulative IPC: 3.45825 (Simulation time: 0 hr 25 min 59 sec) 
Heartbeat CPU 0 instructions: 410000003 cycles: 118575274 heartbeat IPC: 3.43673 cumulative IPC: 3.45772 (Simulation time: 0 hr 26 min 39 sec) 
Heartbeat CPU 0 instructions: 420000004 cycles: 121541377 heartbeat IPC: 3.37143 cumulative IPC: 3.45561 (Simulation time: 0 hr 27 min 20 sec) 
Heartbeat CPU 0 instructions: 430000003 cycles: 124420836 heartbeat IPC: 3.47287 cumulative IPC: 3.45601 (Simulation time: 0 hr 28 min 0 sec) 
Heartbeat CPU 0 instructions: 440000003 cycles: 127234555 heartbeat IPC: 3.55402 cumulative IPC: 3.45818 (Simulation time: 0 hr 28 min 37 sec) 
Heartbeat CPU 0 instructions: 450000004 cycles: 130188651 heartbeat IPC: 3.38513 cumulative IPC: 3.45652 (Simulation time: 0 hr 29 min 18 sec) 
Heartbeat CPU 0 instructions: 460000004 cycles: 133101954 heartbeat IPC: 3.43253 cumulative IPC: 3.456 (Simulation time: 0 hr 29 min 58 sec) 
Heartbeat CPU 0 instructions: 470000004 cycles: 136170414 heartbeat IPC: 3.25896 cumulative IPC: 3.45156 (Simulation time: 0 hr 30 min 40 sec) 
Heartbeat CPU 0 instructions: 480000000 cycles: 139323502 heartbeat IPC: 3.17149 cumulative IPC: 3.44522 (Simulation time: 0 hr 31 min 24 sec) 
Heartbeat CPU 0 instructions: 490000000 cycles: 142261313 heartbeat IPC: 3.40389 cumulative IPC: 3.44437 (Simulation time: 0 hr 32 min 4 sec) 
Heartbeat CPU 0 instructions: 500000003 cycles: 145179505 heartbeat IPC: 3.42678 cumulative IPC: 3.44401 (Simulation time: 0 hr 32 min 43 sec) 

Warmup complete CPU 0 instructions: 500000003 cycles: 145179505 (Simulation time: 0 hr 32 min 43 sec) 

Heartbeat CPU 0 instructions: 510000001 cycles: 154315864 heartbeat IPC: 1.09453 cumulative IPC: 1.09453 (Simulation time: 0 hr 33 min 42 sec) 
Heartbeat CPU 0 instructions: 520000000 cycles: 160674326 heartbeat IPC: 1.57271 cumulative IPC: 1.29075 (Simulation time: 0 hr 34 min 18 sec) 
Heartbeat CPU 0 instructions: 530000001 cycles: 169014396 heartbeat IPC: 1.19903 cumulative IPC: 1.25866 (Simulation time: 0 hr 34 min 59 sec) 
Heartbeat CPU 0 instructions: 540000004 cycles: 178679598 heartbeat IPC: 1.03464 cumulative IPC: 1.19403 (Simulation time: 0 hr 36 min 5 sec) 
Heartbeat CPU 0 instructions: 550000002 cycles: 188879206 heartbeat IPC: 0.98043 cumulative IPC: 1.14417 (Simulation time: 0 hr 37 min 18 sec) 
Heartbeat CPU 0 instructions: 560000000 cycles: 197520409 heartbeat IPC: 1.15725 cumulative IPC: 1.14633 (Simulation time: 0 hr 38 min 1 sec) 
Heartbeat CPU 0 instructions: 570000002 cycles: 203461679 heartbeat IPC: 1.68314 cumulative IPC: 1.20105 (Simulation time: 0 hr 38 min 46 sec) 
Heartbeat CPU 0 instructions: 580000000 cycles: 210000821 heartbeat IPC: 1.52925 cumulative IPC: 1.23416 (Simulation time: 0 hr 39 min 33 sec) 
Heartbeat CPU 0 instructions: 590000001 cycles: 216549220 heartbeat IPC: 1.52709 cumulative IPC: 1.26104 (Simulation time: 0 hr 40 min 20 sec) 
Heartbeat CPU 0 instructions: 600000004 cycles: 223202967 heartbeat IPC: 1.50291 cumulative IPC: 1.28167 (Simulation time: 0 hr 41 min 7 sec) 
Heartbeat CPU 0 instructions: 610000003 cycles: 228260063 heartbeat IPC: 1.97742 cumulative IPC: 1.32402 (Simulation time: 0 hr 41 min 50 sec) 
Heartbeat CPU 0 instructions: 620000002 cycles: 235169331 heartbeat IPC: 1.44733 cumulative IPC: 1.33348 (Simulation time: 0 hr 42 min 56 sec) 
Heartbeat CPU 0 instructions: 630000003 cycles: 243710198 heartbeat IPC: 1.17084 cumulative IPC: 1.31939 (Simulation time: 0 hr 43 min 47 sec) 
Heartbeat CPU 0 instructions: 640000002 cycles: 250874710 heartbeat IPC: 1.39577 cumulative IPC: 1.32456 (Simulation time: 0 hr 44 min 35 sec) 
Heartbeat CPU 0 instructions: 650000002 cycles: 258553270 heartbeat IPC: 1.30233 cumulative IPC: 1.32306 (Simulation time: 0 hr 45 min 19 sec) 
Heartbeat CPU 0 instructions: 660000003 cycles: 264867403 heartbeat IPC: 1.58375 cumulative IPC: 1.33681 (Simulation time: 0 hr 46 min 15 sec) 
Heartbeat CPU 0 instructions: 670000003 cycles: 271270480 heartbeat IPC: 1.56175 cumulative IPC: 1.34823 (Simulation time: 0 hr 47 min 8 sec) 
Heartbeat CPU 0 instructions: 680000002 cycles: 278566836 heartbeat IPC: 1.37055 cumulative IPC: 1.34945 (Simulation time: 0 hr 47 min 49 sec) 
Heartbeat CPU 0 instructions: 690000001 cycles: 286297225 heartbeat IPC: 1.2936 cumulative IPC: 1.34639 (Simulation time: 0 hr 48 min 30 sec) 
Heartbeat CPU 0 instructions: 700000001 cycles: 294661633 heartbeat IPC: 1.19554 cumulative IPC: 1.33795 (Simulation time: 0 hr 49 min 12 sec) 
Heartbeat CPU 0 instructions: 710000004 cycles: 302692629 heartbeat IPC: 1.24518 cumulative IPC: 1.33322 (Simulation time: 0 hr 49 min 54 sec) 
Heartbeat CPU 0 instructions: 720000004 cycles: 310905806 heartbeat IPC: 1.21756 cumulative IPC: 1.32749 (Simulation time: 0 hr 50 min 36 sec) 
Heartbeat CPU 0 instructions: 730000000 cycles: 319024894 heartbeat IPC: 1.23166 cumulative IPC: 1.32301 (Simulation time: 0 hr 51 min 18 sec) 
Heartbeat CPU 0 instructions: 740000002 cycles: 327089959 heartbeat IPC: 1.23992 cumulative IPC: 1.31933 (Simulation time: 0 hr 52 min 1 sec) 
Heartbeat CPU 0 instructions: 750000000 cycles: 335448055 heartbeat IPC: 1.19644 cumulative IPC: 1.31393 (Simulation time: 0 hr 52 min 40 sec) 
Heartbeat CPU 0 instructions: 760000002 cycles: 343026207 heartbeat IPC: 1.31958 cumulative IPC: 1.31415 (Simulation time: 0 hr 53 min 22 sec) 
Heartbeat CPU 0 instructions: 770000002 cycles: 351632643 heartbeat IPC: 1.16192 cumulative IPC: 1.3078 (Simulation time: 0 hr 54 min 3 sec) 
Heartbeat CPU 0 instructions: 780000000 cycles: 360412748 heartbeat IPC: 1.13894 cumulative IPC: 1.30091 (Simulation time: 0 hr 54 min 46 sec) 
Heartbeat CPU 0 instructions: 790000000 cycles: 368218463 heartbeat IPC: 1.28111 cumulative IPC: 1.30022 (Simulation time: 0 hr 55 min 27 sec) 
Heartbeat CPU 0 instructions: 800000003 cycles: 376608567 heartbeat IPC: 1.19188 cumulative IPC: 1.29629 (Simulation time: 0 hr 56 min 9 sec) 
Heartbeat CPU 0 instructions: 810000003 cycles: 384400654 heartbeat IPC: 1.28335 cumulative IPC: 1.29587 (Simulation time: 0 hr 56 min 54 sec) 
Heartbeat CPU 0 instructions: 820000002 cycles: 393201320 heartbeat IPC: 1.13628 cumulative IPC: 1.29021 (Simulation time: 0 hr 57 min 38 sec) 
Heartbeat CPU 0 instructions: 830000002 cycles: 403093115 heartbeat IPC: 1.01094 cumulative IPC: 1.2795 (Simulation time: 0 hr 58 min 30 sec) 
Heartbeat CPU 0 instructions: 840000002 cycles: 410356375 heartbeat IPC: 1.37679 cumulative IPC: 1.28216 (Simulation time: 0 hr 59 min 17 sec) 
Heartbeat CPU 0 instructions: 850000003 cycles: 418700171 heartbeat IPC: 1.1985 cumulative IPC: 1.27961 (Simulation time: 0 hr 59 min 59 sec) 
Heartbeat CPU 0 instructions: 860000001 cycles: 428269563 heartbeat IPC: 1.045 cumulative IPC: 1.27168 (Simulation time: 1 hr 1 min 3 sec) 
Heartbeat CPU 0 instructions: 870000002 cycles: 438490770 heartbeat IPC: 0.978358 cumulative IPC: 1.26146 (Simulation time: 1 hr 2 min 15 sec) 
Heartbeat CPU 0 instructions: 880000002 cycles: 446077853 heartbeat IPC: 1.31803 cumulative IPC: 1.26288 (Simulation time: 1 hr 2 min 55 sec) 
Heartbeat CPU 0 instructions: 890000004 cycles: 452633920 heartbeat IPC: 1.52531 cumulative IPC: 1.26848 (Simulation time: 1 hr 3 min 41 sec) 
Heartbeat CPU 0 instructions: 900000000 cycles: 459219033 heartbeat IPC: 1.51858 cumulative IPC: 1.27373 (Simulation time: 1 hr 4 min 27 sec) 
Heartbeat CPU 0 instructions: 910000004 cycles: 465910296 heartbeat IPC: 1.49449 cumulative IPC: 1.27833 (Simulation time: 1 hr 5 min 13 sec) 
Heartbeat CPU 0 instructions: 920000001 cycles: 472634361 heartbeat IPC: 1.4872 cumulative IPC: 1.28262 (Simulation time: 1 hr 5 min 59 sec) 
Heartbeat CPU 0 instructions: 930000001 cycles: 477929319 heartbeat IPC: 1.88859 cumulative IPC: 1.29226 (Simulation time: 1 hr 6 min 46 sec) 
Heartbeat CPU 0 instructions: 940000003 cycles: 485096230 heartbeat IPC: 1.3953 cumulative IPC: 1.29443 (Simulation time: 1 hr 7 min 53 sec) 
Heartbeat CPU 0 instructions: 950000001 cycles: 493428439 heartbeat IPC: 1.20016 cumulative IPC: 1.29218 (Simulation time: 1 hr 8 min 41 sec) 
Heartbeat CPU 0 instructions: 960000002 cycles: 501022725 heartbeat IPC: 1.31678 cumulative IPC: 1.2927 (Simulation time: 1 hr 9 min 25 sec) 
Heartbeat CPU 0 instructions: 970000003 cycles: 508691194 heartbeat IPC: 1.30404 cumulative IPC: 1.29294 (Simulation time: 1 hr 10 min 9 sec) 
Heartbeat CPU 0 instructions: 980000004 cycles: 516961794 heartbeat IPC: 1.2091 cumulative IPC: 1.29108 (Simulation time: 1 hr 10 min 50 sec) 
Heartbeat CPU 0 instructions: 990000000 cycles: 524888507 heartbeat IPC: 1.26156 cumulative IPC: 1.29046 (Simulation time: 1 hr 11 min 32 sec) 
Heartbeat CPU 0 instructions: 1000000000 cycles: 532146488 heartbeat IPC: 1.37779 cumulative IPC: 1.2921 (Simulation time: 1 hr 12 min 13 sec) 
Heartbeat CPU 0 instructions: 1010000002 cycles: 540303063 heartbeat IPC: 1.22601 cumulative IPC: 1.29074 (Simulation time: 1 hr 12 min 57 sec) 
Heartbeat CPU 0 instructions: 1020000004 cycles: 548476249 heartbeat IPC: 1.22351 cumulative IPC: 1.28937 (Simulation time: 1 hr 13 min 38 sec) 
Heartbeat CPU 0 instructions: 1030000003 cycles: 557082815 heartbeat IPC: 1.1619 cumulative IPC: 1.28671 (Simulation time: 1 hr 14 min 21 sec) 
Heartbeat CPU 0 instructions: 1040000001 cycles: 565410262 heartbeat IPC: 1.20085 cumulative IPC: 1.28501 (Simulation time: 1 hr 15 min 1 sec) 
Heartbeat CPU 0 instructions: 1050000000 cycles: 573471150 heartbeat IPC: 1.24056 cumulative IPC: 1.28417 (Simulation time: 1 hr 15 min 42 sec) 
Heartbeat CPU 0 instructions: 1060000000 cycles: 581346767 heartbeat IPC: 1.26974 cumulative IPC: 1.28391 (Simulation time: 1 hr 16 min 23 sec) 
Heartbeat CPU 0 instructions: 1070000000 cycles: 590331677 heartbeat IPC: 1.11298 cumulative IPC: 1.28046 (Simulation time: 1 hr 17 min 4 sec) 
Heartbeat CPU 0 instructions: 1080000002 cycles: 599155000 heartbeat IPC: 1.13336 cumulative IPC: 1.2776 (Simulation time: 1 hr 17 min 46 sec) 
Heartbeat CPU 0 instructions: 1090000000 cycles: 607015396 heartbeat IPC: 1.2722 cumulative IPC: 1.27751 (Simulation time: 1 hr 18 min 30 sec) 
Heartbeat CPU 0 instructions: 1100000000 cycles: 615109905 heartbeat IPC: 1.23541 cumulative IPC: 1.27678 (Simulation time: 1 hr 19 min 13 sec) 
Heartbeat CPU 0 instructions: 1110000000 cycles: 622988472 heartbeat IPC: 1.26927 cumulative IPC: 1.27666 (Simulation time: 1 hr 19 min 53 sec) 
Heartbeat CPU 0 instructions: 1120000002 cycles: 632148483 heartbeat IPC: 1.0917 cumulative IPC: 1.27318 (Simulation time: 1 hr 20 min 40 sec) 
Heartbeat CPU 0 instructions: 1130000002 cycles: 641035491 heartbeat IPC: 1.12524 cumulative IPC: 1.27053 (Simulation time: 1 hr 21 min 24 sec) 
Heartbeat CPU 0 instructions: 1140000004 cycles: 650594318 heartbeat IPC: 1.04615 cumulative IPC: 1.26629 (Simulation time: 1 hr 22 min 29 sec) 
Heartbeat CPU 0 instructions: 1150000001 cycles: 657479639 heartbeat IPC: 1.45236 cumulative IPC: 1.26879 (Simulation time: 1 hr 23 min 4 sec) 
Heartbeat CPU 0 instructions: 1160000002 cycles: 665456692 heartbeat IPC: 1.2536 cumulative IPC: 1.26855 (Simulation time: 1 hr 23 min 45 sec) 
Heartbeat CPU 0 instructions: 1170000001 cycles: 675530045 heartbeat IPC: 0.992718 cumulative IPC: 1.26332 (Simulation time: 1 hr 24 min 58 sec) 
Heartbeat CPU 0 instructions: 1180000000 cycles: 685732030 heartbeat IPC: 0.980201 cumulative IPC: 1.25797 (Simulation time: 1 hr 26 min 11 sec) 
Heartbeat CPU 0 instructions: 1190000001 cycles: 692840316 heartbeat IPC: 1.40681 cumulative IPC: 1.2599 (Simulation time: 1 hr 26 min 47 sec) 
Heartbeat CPU 0 instructions: 1200000001 cycles: 699454089 heartbeat IPC: 1.512 cumulative IPC: 1.26291 (Simulation time: 1 hr 27 min 33 sec) 
Heartbeat CPU 0 instructions: 1210000004 cycles: 706166325 heartbeat IPC: 1.48982 cumulative IPC: 1.26563 (Simulation time: 1 hr 28 min 19 sec) 
Heartbeat CPU 0 instructions: 1220000000 cycles: 712788659 heartbeat IPC: 1.51004 cumulative IPC: 1.26848 (Simulation time: 1 hr 29 min 5 sec) 
Heartbeat CPU 0 instructions: 1230000002 cycles: 719542638 heartbeat IPC: 1.48061 cumulative IPC: 1.27097 (Simulation time: 1 hr 29 min 51 sec) 
Heartbeat CPU 0 instructions: 1240000003 cycles: 724752847 heartbeat IPC: 1.91931 cumulative IPC: 1.2768 (Simulation time: 1 hr 30 min 39 sec) 
Heartbeat CPU 0 instructions: 1250000001 cycles: 731996516 heartbeat IPC: 1.38052 cumulative IPC: 1.27808 (Simulation time: 1 hr 31 min 43 sec) 
Heartbeat CPU 0 instructions: 1260000003 cycles: 740428786 heartbeat IPC: 1.18592 cumulative IPC: 1.27678 (Simulation time: 1 hr 32 min 32 sec) 
Heartbeat CPU 0 instructions: 1270000001 cycles: 747403584 heartbeat IPC: 1.43373 cumulative IPC: 1.27859 (Simulation time: 1 hr 33 min 17 sec) 
Heartbeat CPU 0 instructions: 1280000002 cycles: 754996425 heartbeat IPC: 1.31703 cumulative IPC: 1.27907 (Simulation time: 1 hr 33 min 59 sec) 
Heartbeat CPU 0 instructions: 1290000004 cycles: 763479996 heartbeat IPC: 1.17875 cumulative IPC: 1.2777 (Simulation time: 1 hr 34 min 41 sec) 
Heartbeat CPU 0 instructions: 1300000004 cycles: 770595869 heartbeat IPC: 1.40531 cumulative IPC: 1.27915 (Simulation time: 1 hr 35 min 24 sec) 
Heartbeat CPU 0 instructions: 1310000002 cycles: 778530702 heartbeat IPC: 1.26027 cumulative IPC: 1.27891 (Simulation time: 1 hr 36 min 3 sec) 
Heartbeat CPU 0 instructions: 1320000000 cycles: 786758327 heartbeat IPC: 1.21542 cumulative IPC: 1.2781 (Simulation time: 1 hr 36 min 45 sec) 
Heartbeat CPU 0 instructions: 1330000004 cycles: 794763605 heartbeat IPC: 1.24918 cumulative IPC: 1.27774 (Simulation time: 1 hr 37 min 25 sec) 
Heartbeat CPU 0 instructions: 1340000001 cycles: 803339437 heartbeat IPC: 1.16607 cumulative IPC: 1.27629 (Simulation time: 1 hr 38 min 8 sec) 
Heartbeat CPU 0 instructions: 1350000000 cycles: 812028474 heartbeat IPC: 1.15088 cumulative IPC: 1.27465 (Simulation time: 1 hr 38 min 51 sec) 
Heartbeat CPU 0 instructions: 1360000001 cycles: 819896654 heartbeat IPC: 1.27094 cumulative IPC: 1.27461 (Simulation time: 1 hr 39 min 31 sec) 
Heartbeat CPU 0 instructions: 1370000003 cycles: 828887770 heartbeat IPC: 1.11221 cumulative IPC: 1.27247 (Simulation time: 1 hr 40 min 12 sec) 
Heartbeat CPU 0 instructions: 1380000001 cycles: 837175880 heartbeat IPC: 1.20655 cumulative IPC: 1.27168 (Simulation time: 1 hr 40 min 55 sec) 
Heartbeat CPU 0 instructions: 1390000004 cycles: 845477748 heartbeat IPC: 1.20455 cumulative IPC: 1.27089 (Simulation time: 1 hr 41 min 35 sec) 
Heartbeat CPU 0 instructions: 1400000004 cycles: 852625826 heartbeat IPC: 1.39898 cumulative IPC: 1.27218 (Simulation time: 1 hr 42 min 19 sec) 
Heartbeat CPU 0 instructions: 1410000002 cycles: 861400795 heartbeat IPC: 1.1396 cumulative IPC: 1.27056 (Simulation time: 1 hr 43 min 3 sec) 
Heartbeat CPU 0 instructions: 1420000003 cycles: 869880392 heartbeat IPC: 1.1793 cumulative IPC: 1.26949 (Simulation time: 1 hr 43 min 46 sec) 
Heartbeat CPU 0 instructions: 1430000000 cycles: 878127708 heartbeat IPC: 1.21252 cumulative IPC: 1.26885 (Simulation time: 1 hr 44 min 25 sec) 
Heartbeat CPU 0 instructions: 1440000002 cycles: 886798751 heartbeat IPC: 1.15326 cumulative IPC: 1.2675 (Simulation time: 1 hr 45 min 9 sec) 
Heartbeat CPU 0 instructions: 1450000003 cycles: 897056279 heartbeat IPC: 0.974894 cumulative IPC: 1.2635 (Simulation time: 1 hr 46 min 9 sec) 
Heartbeat CPU 0 instructions: 1460000001 cycles: 903714850 heartbeat IPC: 1.50182 cumulative IPC: 1.2656 (Simulation time: 1 hr 46 min 53 sec) 
Heartbeat CPU 0 instructions: 1470000001 cycles: 911392589 heartbeat IPC: 1.30247 cumulative IPC: 1.26597 (Simulation time: 1 hr 47 min 32 sec) 
Heartbeat CPU 0 instructions: 1480000004 cycles: 920821779 heartbeat IPC: 1.06054 cumulative IPC: 1.26347 (Simulation time: 1 hr 48 min 32 sec) 
Heartbeat CPU 0 instructions: 1490000001 cycles: 931025851 heartbeat IPC: 0.980001 cumulative IPC: 1.25979 (Simulation time: 1 hr 49 min 45 sec) 
Heartbeat CPU 0 instructions: 1500000000 cycles: 940315103 heartbeat IPC: 1.07651 cumulative IPC: 1.25765 (Simulation time: 1 hr 50 min 32 sec) 
Heartbeat CPU 0 instructions: 1510000000 cycles: 946174453 heartbeat IPC: 1.70667 cumulative IPC: 1.26093 (Simulation time: 1 hr 51 min 17 sec) 
Heartbeat CPU 0 instructions: 1520000000 cycles: 952791313 heartbeat IPC: 1.51129 cumulative IPC: 1.26298 (Simulation time: 1 hr 52 min 3 sec) 
Heartbeat CPU 0 instructions: 1530000003 cycles: 959433297 heartbeat IPC: 1.50557 cumulative IPC: 1.26496 (Simulation time: 1 hr 52 min 50 sec) 
Heartbeat CPU 0 instructions: 1540000000 cycles: 966247186 heartbeat IPC: 1.46759 cumulative IPC: 1.26664 (Simulation time: 1 hr 53 min 36 sec) 
Heartbeat CPU 0 instructions: 1550000003 cycles: 971345703 heartbeat IPC: 1.96136 cumulative IPC: 1.27093 (Simulation time: 1 hr 54 min 19 sec) 
Heartbeat CPU 0 instructions: 1560000004 cycles: 978258670 heartbeat IPC: 1.44656 cumulative IPC: 1.27239 (Simulation time: 1 hr 55 min 25 sec) 
Heartbeat CPU 0 instructions: 1570000001 cycles: 986952848 heartbeat IPC: 1.15019 cumulative IPC: 1.27113 (Simulation time: 1 hr 56 min 19 sec) 
Heartbeat CPU 0 instructions: 1580000000 cycles: 994515073 heartbeat IPC: 1.32236 cumulative IPC: 1.27158 (Simulation time: 1 hr 57 min 4 sec) 
Heartbeat CPU 0 instructions: 1590000004 cycles: 1002790308 heartbeat IPC: 1.20843 cumulative IPC: 1.27097 (Simulation time: 1 hr 57 min 48 sec) 
Heartbeat CPU 0 instructions: 1600000001 cycles: 1010940840 heartbeat IPC: 1.22691 cumulative IPC: 1.27056 (Simulation time: 1 hr 58 min 30 sec) 
Heartbeat CPU 0 instructions: 1610000000 cycles: 1018749718 heartbeat IPC: 1.28059 cumulative IPC: 1.27065 (Simulation time: 1 hr 59 min 12 sec) 
Heartbeat CPU 0 instructions: 1620000002 cycles: 1027296691 heartbeat IPC: 1.17001 cumulative IPC: 1.26967 (Simulation time: 1 hr 59 min 52 sec) 
Heartbeat CPU 0 instructions: 1630000001 cycles: 1035846758 heartbeat IPC: 1.16958 cumulative IPC: 1.26871 (Simulation time: 2 hr 0 min 34 sec) 
Heartbeat CPU 0 instructions: 1640000003 cycles: 1044944656 heartbeat IPC: 1.09916 cumulative IPC: 1.267 (Simulation time: 2 hr 1 min 15 sec) 
Heartbeat CPU 0 instructions: 1650000002 cycles: 1054117558 heartbeat IPC: 1.09017 cumulative IPC: 1.26521 (Simulation time: 2 hr 1 min 57 sec) 
Heartbeat CPU 0 instructions: 1660000002 cycles: 1062661029 heartbeat IPC: 1.17048 cumulative IPC: 1.26433 (Simulation time: 2 hr 2 min 39 sec) 
Heartbeat CPU 0 instructions: 1670000004 cycles: 1071477148 heartbeat IPC: 1.13429 cumulative IPC: 1.26309 (Simulation time: 2 hr 3 min 19 sec) 
Heartbeat CPU 0 instructions: 1680000001 cycles: 1080728475 heartbeat IPC: 1.08093 cumulative IPC: 1.26129 (Simulation time: 2 hr 4 min 1 sec) 
Heartbeat CPU 0 instructions: 1690000003 cycles: 1088884541 heartbeat IPC: 1.22608 cumulative IPC: 1.26099 (Simulation time: 2 hr 4 min 42 sec) 
Heartbeat CPU 0 instructions: 1700000000 cycles: 1098132165 heartbeat IPC: 1.08136 cumulative IPC: 1.25924 (Simulation time: 2 hr 5 min 25 sec) 
Heartbeat CPU 0 instructions: 1710000001 cycles: 1105444113 heartbeat IPC: 1.36762 cumulative IPC: 1.26007 (Simulation time: 2 hr 6 min 4 sec) 
Heartbeat CPU 0 instructions: 1720000000 cycles: 1115169147 heartbeat IPC: 1.02827 cumulative IPC: 1.25775 (Simulation time: 2 hr 6 min 51 sec) 
Heartbeat CPU 0 instructions: 1730000001 cycles: 1124270362 heartbeat IPC: 1.09875 cumulative IPC: 1.25627 (Simulation time: 2 hr 7 min 34 sec) 
Heartbeat CPU 0 instructions: 1740000000 cycles: 1134505819 heartbeat IPC: 0.976996 cumulative IPC: 1.25338 (Simulation time: 2 hr 8 min 22 sec) 
Heartbeat CPU 0 instructions: 1750000003 cycles: 1142418672 heartbeat IPC: 1.26377 cumulative IPC: 1.25346 (Simulation time: 2 hr 9 min 17 sec) 
Heartbeat CPU 0 instructions: 1760000000 cycles: 1149477939 heartbeat IPC: 1.41658 cumulative IPC: 1.25461 (Simulation time: 2 hr 9 min 50 sec) 
Heartbeat CPU 0 instructions: 1770000003 cycles: 1158390078 heartbeat IPC: 1.12207 cumulative IPC: 1.25344 (Simulation time: 2 hr 10 min 36 sec) 
Heartbeat CPU 0 instructions: 1780000002 cycles: 1168574817 heartbeat IPC: 0.981861 cumulative IPC: 1.25074 (Simulation time: 2 hr 11 min 49 sec) 
Heartbeat CPU 0 instructions: 1790000002 cycles: 1178761420 heartbeat IPC: 0.981682 cumulative IPC: 1.24809 (Simulation time: 2 hr 13 min 2 sec) 
Heartbeat CPU 0 instructions: 1800000003 cycles: 1185920430 heartbeat IPC: 1.39684 cumulative IPC: 1.24911 (Simulation time: 2 hr 13 min 38 sec) 
Heartbeat CPU 0 instructions: 1810000001 cycles: 1192652779 heartbeat IPC: 1.48537 cumulative IPC: 1.25063 (Simulation time: 2 hr 14 min 24 sec) 
Heartbeat CPU 0 instructions: 1820000001 cycles: 1199362698 heartbeat IPC: 1.49033 cumulative IPC: 1.25215 (Simulation time: 2 hr 15 min 10 sec) 
Heartbeat CPU 0 instructions: 1830000004 cycles: 1206102606 heartbeat IPC: 1.4837 cumulative IPC: 1.25363 (Simulation time: 2 hr 15 min 56 sec) 
Heartbeat CPU 0 instructions: 1840000001 cycles: 1212886736 heartbeat IPC: 1.47403 cumulative IPC: 1.25503 (Simulation time: 2 hr 16 min 43 sec) 
Heartbeat CPU 0 instructions: 1850000003 cycles: 1218194295 heartbeat IPC: 1.88411 cumulative IPC: 1.25814 (Simulation time: 2 hr 17 min 31 sec) 
Heartbeat CPU 0 instructions: 1860000004 cycles: 1225431628 heartbeat IPC: 1.38172 cumulative IPC: 1.25897 (Simulation time: 2 hr 18 min 36 sec) 
Heartbeat CPU 0 instructions: 1870000001 cycles: 1234148828 heartbeat IPC: 1.14716 cumulative IPC: 1.25807 (Simulation time: 2 hr 19 min 26 sec) 
Heartbeat CPU 0 instructions: 1880000001 cycles: 1241672767 heartbeat IPC: 1.32909 cumulative IPC: 1.25856 (Simulation time: 2 hr 20 min 12 sec) 
Heartbeat CPU 0 instructions: 1890000004 cycles: 1249757435 heartbeat IPC: 1.23691 cumulative IPC: 1.2584 (Simulation time: 2 hr 20 min 56 sec) 
Heartbeat CPU 0 instructions: 1900000004 cycles: 1258047016 heartbeat IPC: 1.20633 cumulative IPC: 1.25801 (Simulation time: 2 hr 21 min 40 sec) 
Heartbeat CPU 0 instructions: 1910000002 cycles: 1265667049 heartbeat IPC: 1.31233 cumulative IPC: 1.25838 (Simulation time: 2 hr 22 min 23 sec) 
Heartbeat CPU 0 instructions: 1920000003 cycles: 1273920059 heartbeat IPC: 1.21168 cumulative IPC: 1.25804 (Simulation time: 2 hr 23 min 2 sec) 
Heartbeat CPU 0 instructions: 1930000001 cycles: 1282382581 heartbeat IPC: 1.18168 cumulative IPC: 1.25747 (Simulation time: 2 hr 23 min 43 sec) 
Heartbeat CPU 0 instructions: 1940000003 cycles: 1291536552 heartbeat IPC: 1.09242 cumulative IPC: 1.25615 (Simulation time: 2 hr 24 min 27 sec) 
Heartbeat CPU 0 instructions: 1950000003 cycles: 1300917431 heartbeat IPC: 1.066 cumulative IPC: 1.25461 (Simulation time: 2 hr 25 min 11 sec) 
Heartbeat CPU 0 instructions: 1960000002 cycles: 1309174486 heartbeat IPC: 1.21109 cumulative IPC: 1.2543 (Simulation time: 2 hr 25 min 51 sec) 
Heartbeat CPU 0 instructions: 1970000000 cycles: 1318030638 heartbeat IPC: 1.12916 cumulative IPC: 1.25336 (Simulation time: 2 hr 26 min 32 sec) 
Heartbeat CPU 0 instructions: 1980000000 cycles: 1326661348 heartbeat IPC: 1.15865 cumulative IPC: 1.25266 (Simulation time: 2 hr 27 min 13 sec) 
Heartbeat CPU 0 instructions: 1990000001 cycles: 1335482773 heartbeat IPC: 1.1336 cumulative IPC: 1.25178 (Simulation time: 2 hr 27 min 53 sec) 
*** Reached end of trace: traces/401.bzip2-226B.champsimtrace.xz
Heartbeat CPU 0 instructions: 2000000001 cycles: 1343760848 heartbeat IPC: 1.20801 cumulative IPC: 1.25148 (Simulation time: 2 hr 28 min 33 sec) 
Finished CPU 0 instructions: 1500000003 cycles: 1198581686 cumulative IPC: 1.25148 (Simulation time: 2 hr 28 min 33 sec) 

ChampSim completed all CPUs

Region of Interest Statistics

CPU 0 cumulative IPC: 1.25148 instructions: 1500000003 cycles: 1198581686
cpu0_DTLB TOTAL     ACCESS:  357324083  HIT:  345799768  MISS:   11524315
cpu0_DTLB LOAD      ACCESS:  260036338  HIT:  252583368  MISS:    7452970
cpu0_DTLB RFO       ACCESS:   97287745  HIT:   93216400  MISS:    4071345
cpu0_DTLB PREFETCH  ACCESS:          0  HIT:          0  MISS:          0
cpu0_DTLB WRITEBACK ACCESS:          0  HIT:          0  MISS:          0
cpu0_DTLB TRANSLATION ACCESS:          0  HIT:          0  MISS:          0
cpu0_DTLB PREFETCH  REQUESTED:          0  ISSUED:          0  USEFUL:          0  USELESS:          0
cpu0_DTLB AVERAGE MISS LATENCY: 9.10697 cycles
cpu0_ITLB TOTAL     ACCESS:   92139962  HIT:   92139962  MISS:          0
cpu0_ITLB LOAD      ACCESS:   92139962  HIT:   92139962  MISS:          0
cpu0_ITLB RFO       ACCESS:          0  HIT:          0  MISS:          0
cpu0_ITLB PREFETCH  ACCESS:          0  HIT:          0  MISS:          0
cpu0_ITLB WRITEBACK ACCESS:          0  HIT:          0  MISS:          0
cpu0_ITLB TRANSLATION ACCESS:          0  HIT:          0  MISS:          0
cpu0_ITLB PREFETCH  REQUESTED:          0  ISSUED:          0  USEFUL:          0  USELESS:          0
cpu0_ITLB AVERAGE MISS LATENCY: -nan cycles
cpu0_L1I TOTAL     ACCESS:   68172696  HIT:   68172696  MISS:          0
cpu0_L1I LOAD      ACCESS:   68172696  HIT:   68172696  MISS:          0
cpu0_L1I RFO       ACCESS:          0  HIT:          0  MISS:          0
cpu0_L1I PREFETCH  ACCESS:          0  HIT:          0  MISS:          0
cpu0_L1I WRITEBACK ACCESS:          0  HIT:          0  MISS:          0
cpu0_L1I TRANSLATION ACCESS:          0  HIT:          0  MISS:          0
cpu0_L1I PREFETCH  REQUESTED:          0  ISSUED:          0  USEFUL:          0  USELESS:          0
cpu0_L1I AVERAGE MISS LATENCY: -nan cycles
cpu0_STLB TOTAL     ACCESS:   11524315  HIT:   11521755  MISS:       2560
cpu0_STLB LOAD      ACCESS:    7452970  HIT:    7451737  MISS:       1233
cpu0_STLB RFO       ACCESS:    4071345  HIT:    4070018  MISS:       1327
cpu0_STLB PREFETCH  ACCESS:          0  HIT:          0  MISS:          0
cpu0_STLB WRITEBACK ACCESS:          0  HIT:          0  MISS:          0
cpu0_STLB TRANSLATION ACCESS:          0  HIT:          0  MISS:          0
cpu0_STLB PREFETCH  REQUESTED:          0  ISSUED:          0  USEFUL:          0  USELESS:          0
cpu0_STLB AVERAGE MISS LATENCY: 141.964 cycles
cpu0_L1D TOTAL     ACCESS:  404303230  HIT:  384554369  MISS:   19748861
cpu0_L1D LOAD      ACCESS:  243126505  HIT:  227120973  MISS:   16005532
cpu0_L1D RFO       ACCESS:  161174206  HIT:  157431222  MISS:    3742984
cpu0_L1D PREFETCH  ACCESS:          0  HIT:          0  MISS:          0
cpu0_L1D WRITEBACK ACCESS:          0  HIT:          0  MISS:          0
cpu0_L1D TRANSLATION ACCESS:       2519  HIT:       2174  MISS:        345
cpu0_L1D PREFETCH  REQUESTED:          0  ISSUED:          0  USEFUL:          0  USELESS:          0
cpu0_L1D AVERAGE MISS LATENCY: 76.5284 cycles
cpu0_L2C TOTAL     ACCESS:   24750006  HIT:   17070255  MISS:    7679751
cpu0_L2C LOAD      ACCESS:   16002227  HIT:   10774939  MISS:    5227288
cpu0_L2C RFO       ACCESS:    3741200  HIT:    1291142  MISS:    2450058
cpu0_L2C PREFETCH  ACCESS:          0  HIT:          0  MISS:          0
cpu0_L2C WRITEBACK ACCESS:    5006234  HIT:    5003878  MISS:       2356
cpu0_L2C TRANSLATION ACCESS:        345  HIT:        296  MISS:         49
cpu0_L2C PREFETCH  REQUESTED:          0  ISSUED:          0  USEFUL:          0  USELESS:          0
cpu0_L2C AVERAGE MISS LATENCY: 168.187 cycles
LLC TOTAL     ACCESS:   10478959  HIT:    8381323  MISS:    2097636
LLC LOAD      ACCESS:    5226786  HIT:    4162430  MISS:    1064356
LLC RFO       ACCESS:    2449895  HIT:    1420155  MISS:    1029740
LLC PREFETCH  ACCESS:          0  HIT:          0  MISS:          0
LLC WRITEBACK ACCESS:    2802229  HIT:    2798727  MISS:       3502
LLC TRANSLATION ACCESS:         49  HIT:         11  MISS:         38
LLC PREFETCH  REQUESTED:          0  ISSUED:          0  USEFUL:          0  USELESS:          0
LLC AVERAGE MISS LATENCY: 538.891 cycles
~~~~~~~~~~Reuse Distance Profiler output~~~~~~~~~~
0	70547456	17682960
1	68592640	35810576
2	57931232	37081184
3	56573168	44204192
4	35347328	26300720
5	23689296	16018912
6	16768096	10578176
7	15357392	9766896
8	13740208	7622288
9	11431536	7847504
10	10818704	6016352
11	10727088	5156608
12	8295728	4862912
13	14577392	7661376
14	6125392	3929168
15	5925904	3827632
16	4921712	3252752
17	3980656	2698848
18	3499392	2463440
19	3860896	2546160
20	3131152	2166272
21	2930656	2053680
22	2354992	1615888
23	2267408	1536832
24	2206608	1399696
25	1836880	1195264
26	1687280	1104944
27	1728880	1097280
28	1356816	877680
29	1146688	780256
30	1089616	746368
31	1040016	667648
32	1146192	706960
33	805104	548496
34	784640	516720
35	714032	499040
36	665248	459632
37	661312	466384
38	671216	481088
39	628064	437760
40	591600	402400
41	788576	476656
42	550688	362320
43	528192	351184
44	532176	352672
45	512432	343632
46	504560	343328
47	488368	308608
48	444160	288528
49	432848	279392
50	422448	277040
51	398128	259216
52	389152	252656
53	396432	264416
54	381872	252384
55	477072	289792
56	332784	227360
57	314848	215968
58	434960	337168
59	303936	217936
60	277904	197056
61	272864	184352
62	257712	184928
63	254288	183968
64	558192	409760
66	505648	366400
68	559376	423024
70	444656	337232
72	453264	346048
74	415520	319776
76	443296	315600
78	450448	306304
80	388048	302912
82	449616	345040
84	387424	298704
86	385312	293888
88	420000	318096
90	353680	269264
92	389408	281520
94	387152	285360
96	465392	333616
98	405872	300160
100	423504	307856
102	410384	263760
104	447888	262832
106	506048	252352
108	511568	259952
110	503328	290640
112	367776	249616
114	317008	249472
116	295472	242192
118	284736	235648
120	291904	236336
122	311920	258096
124	368800	303776
126	312144	242112
128	613088	435456
132	700832	424032
136	726048	447008
140	545520	400896
144	423584	371856
148	412304	363520
152	404608	368192
156	358784	326416
160	360048	320624
164	374656	336912
168	319872	287088
172	313328	282032
176	329280	296448
180	318816	288208
184	285520	251312
188	300160	263616
192	312592	270688
196	303360	247456
200	280384	227136
204	294960	228944
208	303120	230704
212	282240	205360
216	289824	204320
220	300576	219008
224	279936	201456
228	271104	203344
232	255696	196640
236	250736	193760
240	231360	182592
244	217520	176832
248	221408	184656
252	207664	173648
256	446496	376928
264	456960	382576
272	472128	396384
280	443968	379280
288	455760	399584
296	412176	359360
304	402704	334224
312	416096	323856
320	426192	308544
328	446112	302720
336	455728	303568
344	443952	304272
352	398656	288816
360	361392	273264
368	333248	261616
376	295072	238224
384	296528	244400
392	274208	220672
400	293392	220800
408	251808	207872
416	244880	206192
424	237056	201488
432	232592	200800
440	231840	202176
448	219824	193536
456	230352	201872
464	221376	191616
472	220528	187968
480	218928	189584
488	216496	189312
496	221840	196592
504	204080	179776
512	368176	322288
528	343184	299808
544	340656	294432
560	332544	293696
576	317152	277104
592	303456	267536
608	299456	263648
624	301024	264496
640	288464	251664
656	297792	262656
672	283600	249168
688	278720	243472
704	256752	224384
720	249200	218544
736	246144	215296
752	231792	203056
768	231216	203440
784	235984	199296
800	249072	208912
816	224224	192048
832	207520	180640
848	196752	172192
864	198288	172416
880	200304	171952
896	198640	172000
912	186848	161408
928	171456	145712
944	167616	143072
960	168368	141728
976	173392	144288
992	170464	140768
1008	167872	138224
1024	313200	256336
1056	296576	238560
1088	275440	225376
1120	264272	216176
1152	235680	196352
1184	231136	195232
1216	214864	181680
1248	210688	179648
1280	204848	173200
1312	199296	170336
1344	188928	160880
1376	184688	158176
1408	176096	150000
1440	171184	146528
1472	173680	149968
1504	164064	141840
1536	158064	135616
1568	161776	137520
1600	146592	124480
1632	143136	121760
1664	145408	123424
1696	140496	120832
1728	141696	121712
1760	142640	124336
1792	134352	116352
1824	131680	114896
1856	130896	113792
1888	117104	100944
1920	121872	105552
1952	121792	106320
1984	113744	98800
2016	111728	96128
2048	238000	208416
2112	209840	181968
2176	187184	161856
2240	190400	164288
2304	184352	161616
2368	178784	155232
2432	168224	144592
2496	169408	145312
2560	183600	161296
2624	188992	167776
2688	193248	173328
2752	174448	155008
2816	167936	149088
2880	153648	134288
2944	144544	125200
3008	145552	127552
3072	125408	108080
3136	127632	110032
3200	122512	105536
3264	118480	100160
3328	115456	95904
3392	123088	102736
3456	125952	104960
3520	116624	96416
3584	115904	97552
3648	112640	93808
3712	119424	101568
3776	109040	90912
3840	97424	79344
3904	96464	79808
3968	95024	80240
4032	92720	75568
4096	183200	151840
4224	183712	154368
4352	184032	155088
4480	190288	163952
4608	173072	148976
4736	212752	186624
4864	163232	139536
4992	175568	155488
5120	151376	132080
5248	162704	142048
5376	161264	141408
5504	197744	177104
5632	137152	118112
5760	187408	168896
5888	199840	180144
6016	139888	122592
6144	211488	195200
6272	118400	102272
6400	112496	97152
6528	110832	95520
6656	117808	99824
6784	119408	96288
6912	189120	172160
7040	147776	132816
7168	98304	84512
7296	100656	86784
7424	235280	221536
7552	199840	186608
7680	128592	114976
7808	120400	107184
7936	116384	103152
8064	123856	111360
8192	243696	216576
8448	182576	157216
8704	235296	208608
8960	210864	189072
9216	206976	186496
9472	258192	238736
9728	218736	199568
9984	156032	136960
10240	155552	136992
10496	146000	128784
10752	177360	158240
11008	139904	121664
11264	151136	134640
11520	130416	115200
11776	130496	114512
12032	128048	112656
12288	124016	109840
12544	122016	107920
12800	117328	103488
13056	108576	96016
13312	106832	94240
13568	104208	91936
13824	103392	90832
14080	101632	90960
14336	96576	86048
14592	106128	93424
14848	90848	80272
15104	89200	79376
15360	91328	80720
15616	88400	79168
15872	88688	79520
16128	83472	74288
16384	160736	144400
16896	167888	151168
17408	154304	138832
17920	147616	133152
18432	145408	131120
18944	141952	128784
19456	136848	125024
19968	133968	121536
20480	127456	115568
20992	117584	106816
21504	117504	105760
22016	114848	104128
22528	114496	103616
23040	117232	107296
23552	128432	118688
24064	116400	107344
24576	102528	94080
25088	100128	91968
25600	97872	89664
26112	97952	90080
26624	92768	85136
27136	102576	95584
27648	92832	86432
28160	84656	77904
28672	86112	79952
29184	86320	79760
29696	92752	86400
30208	85616	79408
30720	85040	79248
31232	78784	73888
31744	79024	73520
32256	87696	82784
32768	161456	150576
33792	140064	131008
34816	136688	126704
35840	134800	125936
36864	130112	121536
37888	141552	133136
38912	130384	123264
39936	123968	116928
40960	120000	113520
41984	116896	110480
43008	110560	104224
44032	122784	116912
45056	96512	91088
46080	109552	103408
47104	105248	99680
48128	102608	97392
49152	92048	86784
50176	91568	86880
51200	93440	88432
52224	86224	81184
53248	83488	79312
54272	82352	77776
55296	80288	75280
56320	82128	77392
57344	79072	75504
58368	85088	80416
59392	83680	79104
60416	75488	71648
61440	73104	69200
62464	73552	69520
63488	76128	72112
64512	69376	65408
65536	132560	126144
67584	128208	122384
69632	126608	122064
71680	119824	115696
73728	114304	110656
75776	118080	114592
77824	106256	102480
79872	100160	96464
81920	90112	86192
83968	91440	87808
86016	85248	81360
88064	80560	77600
90112	80240	76672
92160	83824	80368
94208	81936	78352
96256	75264	72160
98304	76496	73072
100352	74992	71920
102400	75952	72464
104448	75456	71808
106496	74256	70688
108544	72144	68272
110592	68144	64656
112640	65424	61264
114688	64000	60688
116736	63648	60976
118784	63072	59888
120832	58624	55696
122880	55520	52144
124928	56416	53280
126976	55872	52768
129024	54816	51728
131072	111536	105248
135168	97680	91872
139264	93312	86800
143360	89744	83232
147456	89984	81712
151552	84704	77104
155648	82160	76576
159744	76704	71136
163840	81200	73728
167936	80640	75136
172032	75664	70320
176128	71440	66080
180224	67072	61312
184320	67328	61568
188416	60944	54720
192512	63856	56032
196608	61456	52848
200704	56944	49056
204800	53872	46672
208896	53744	45104
212992	50816	42576
217088	45104	37872
221184	48992	40288
225280	42224	36432
229376	40560	34928
233472	47520	41632
237568	37328	32272
241664	37072	32528
245760	36000	32144
249856	36208	32544
253952	37680	32192
258048	38752	32496
262144	68992	58224
270336	80496	65392
278528	70576	57840
286720	67072	54416
294912	62320	50512
303104	58080	50560
311296	56784	48960
319488	52912	44400
327680	55808	45152
335872	50000	42480
344064	49312	42288
352256	49392	39728
360448	46448	36928
368640	43232	36416
376832	45376	36048
385024	40960	34208
393216	40928	35904
401408	46112	39088
409600	42176	34224
417792	39568	34032
425984	43696	34496
434176	53440	38112
442368	44432	36000
450560	40336	31104
458752	40976	33408
466944	39440	32048
475136	38592	30816
483328	36528	28800
491520	34928	26864
499712	35808	27584
507904	35376	26736
516096	35648	27616
524288	77936	56160
540672	74480	50096
557056	66480	47056
573440	66352	50544
589824	61392	47872
606208	54704	45424
622592	54032	43888
638976	51696	41472
655360	56528	42128
671744	54032	40368
688128	59952	46272
704512	59168	40016
720896	58112	37696
737280	54352	37136
753664	60832	38448
770048	53376	36608
786432	52112	35808
802816	48976	33472
819200	48912	34640
835584	46080	32528
851968	45872	32528
868352	41648	33568
884736	40592	30656
901120	44112	30704
917504	50336	30368
933888	49536	30336
950272	41952	30304
966656	46800	30768
983040	38352	25344
999424	40320	26992
1015808	38976	25968
1032192	42928	24464
1048576	88128	49728
1081344	83168	48368
1114112	85584	48672
1146880	75424	43200
1179648	74256	44736
1212416	73280	45840
1245184	65008	41328
1277952	56848	35680
1310720	58800	36752
1343488	54720	32720
1376256	61072	32608
1409024	65104	34128
1441792	52192	30464
1474560	58640	35168
1507328	50736	28400
1540096	41440	27664
1572864	45632	28144
1605632	38816	24816
1638400	45696	22832
1671168	51376	29296
1703936	59568	49232
1736704	46640	28896
1769472	41904	27664
1802240	72864	54736
1835008	58704	44112
1867776	62864	47328
1900544	36112	22320
1933312	34432	25088
1966080	38096	25120
1998848	66208	48368
2031616	41696	25184
2064384	38160	22432
2097152	95376	67936
2162688	62368	43328
2228224	70336	42400
2293760	62976	43088
2359296	62144	44768
2424832	68064	39824
2490368	58944	37216
2555904	48640	29632
2621440	49776	28976
2686976	66336	28160
2752512	49296	25600
2818048	43472	27568
2883584	49296	23152
2949120	39168	20096
3014656	35664	20720
3080192	34448	19808
3145728	34512	20400
3211264	33696	20016
3276800	30512	16864
3342336	27600	17520
3407872	32768	15568
3473408	26032	14416
3538944	24496	14944
3604480	27840	13616
3670016	26016	13360
3735552	26992	13152
3801088	32576	13984
3866624	27488	14384
3932160	23344	12576
3997696	27920	11680
4063232	24944	11504
4128768	21712	11136
4194304	41984	21024
4325376	36768	18128
4456448	33536	15488
4587520	35408	15664
4718592	28720	14464
4849664	30144	16400
4980736	25200	14768
5111808	30560	13008
5242880	26576	13392
5373952	26208	13184
5505024	24432	11008
5636096	31168	13040
5767168	21632	10416
5898240	16624	8576
6029312	20976	9808
6160384	19424	9136
6291456	20768	7200
6422528	14512	6720
6553600	17088	7200
6684672	16448	8016
6815744	14416	7600
6946816	13984	6624
7077888	12560	5088
7208960	10800	4160
7340032	16112	7216
7471104	16400	7824
7602176	11392	5056
7733248	11024	5472
7864320	11456	5472
7995392	9952	5168
8126464	9488	5424
8257536	8416	4528
8388608	19136	10304
8650752	15136	7264
8912896	13792	7088
9175040	13072	6896
9437184	15056	9088
9699328	11424	4848
9961472	11040	5728
10223616	10528	6128
10485760	8512	4544
10747904	10112	4976
11010048	9312	4448
11272192	8832	5376
11534336	6960	3104
11796480	6384	3072
12058624	10976	6720
12320768	7696	3552
12582912	10608	6432
12845056	9088	4928
13107200	8096	4688
13369344	8272	4496
13631488	7200	3280
13893632	6640	2704
14155776	6256	2496
14417920	8240	3920
14680064	10624	6560
14942208	9232	3648
15204352	6128	1776
15466496	8928	2208
15728640	8624	3504
15990784	7216	3536
16252928	5136	1904
16515072	7520	3712
16777216	16064	6112
17301504	17728	7104
17825792	16176	4784
18350080	16096	4896
18874368	14368	3664
19398656	18688	7776
19922944	12208	3824
20447232	11136	4096
20971520	12560	6224
21495808	12496	7312
22020096	10416	5056
22544384	11616	5968
23068672	9776	4352
23592960	9360	5104
24117248	6608	3312
24641536	8112	5152
25165824	8400	5776
25690112	7616	3408
26214400	13248	5184
26738688	18240	4160
27262976	25216	5104
27787264	30976	4144
28311552	38192	4688
28835840	44208	4912
29360128	47584	4608
29884416	45680	3040
30408704	41632	3904
30932992	30960	4672
31457280	21248	4704
31981568	16272	5392
32505856	16384	4848
33030144	15616	4448
33554432	28432	9184
34603008	15760	6144
35651584	10304	6304
36700160	11792	8224
37748736	10448	6992
38797312	7312	4848
39845888	9376	6912
40894464	8656	6880
41943040	6976	5648
42991616	7424	5712
44040192	8576	6960
45088768	7664	5456
46137344	7376	4688
47185920	9872	6256
48234496	8576	5696
49283072	7792	4272
50331648	7104	3184
51380224	7920	3312
52428800	6928	3312
53477376	4224	2224
54525952	3344	1792
55574528	3536	720
56623104	3232	864
57671680	1952	224
58720256	1136	80
59768832	640	96
60817408	304	0
61865984	16	16
62914560	304	0
63963136	512	0
65011712	384	0
66060288	288	0
67108864	720	32
69206016	336	16
71303168	288	0
73400320	1280	0
75497472	2176	32
77594624	5136	144
79691776	560	0
81788928	544	0
83886080	2112	0
85983232	1632	0
88080384	32	0
90177536	80	0
92274688	96	0
94371840	0	0
96468992	0	0
98566144	0	0
100663296	0	0
102760448	0	0
104857600	0	0
106954752	0	0
109051904	0	0
111149056	0	0
113246208	0	0
115343360	0	0
117440512	0	0
119537664	0	0
121634816	0	0
123731968	0	0
125829120	0	0
127926272	0	0
130023424	0	0
132120576	0	0
134217728	0	0
138412032	0	0
142606336	0	0
146800640	0	0
150994944	0	0
155189248	0	0
159383552	0	0
163577856	16	0
167772160	0	0
171966464	0	0
176160768	0	0
180355072	0	0
184549376	0	0
188743680	0	0
192937984	0	0
197132288	0	0
201326592	0	0
205520896	0	0
209715200	0	0
213909504	0	0
218103808	0	0
222298112	0	0
226492416	0	0
230686720	0	0
234881024	0	0
239075328	0	0
243269632	0	0
247463936	0	0
251658240	0	0
255852544	0	0
260046848	0	0
264241152	0	0
268435456	0	0
276824064	0	0
285212672	0	0
293601280	0	0
301989888	0	0
310378496	0	0
318767104	0	0
327155712	0	0
335544320	0	0
343932928	0	0
352321536	0	0
360710144	0	0
369098752	0	0
377487360	0	0
385875968	0	0
394264576	0	0
402653184	0	0
411041792	0	0
419430400	0	0
427819008	0	0
436207616	0	0
444596224	0	0
452984832	0	0
461373440	0	0
469762048	0	0
478150656	0	0
486539264	0	0
494927872	0	0
503316480	0	0
511705088	0	0
520093696	0	0
528482304	0	0
536870912	0	0
553648128	0	0
570425344	0	0
587202560	0	0
603979776	0	0
620756992	0	0
637534208	0	0
654311424	0	0
671088640	0	0
687865856	0	0
704643072	0	0
721420288	0	0
738197504	0	0
754974720	0	0
771751936	0	0
788529152	0	0
805306368	0	0
822083584	0	0
838860800	0	0
855638016	0	0
872415232	0	0
889192448	0	0
905969664	0	0
922746880	0	0
939524096	0	0
956301312	0	0
973078528	0	0
989855744	0	0
1006632960	0	0
1023410176	0	0
1040187392	0	0
1056964608	0	0
1073741824	0	0
1107296256	0	0
1140850688	0	0
1174405120	0	0
1207959552	0	0
1241513984	0	0
1275068416	0	0
1308622848	0	0
1342177280	0	0
1375731712	0	0
1409286144	0	0
1442840576	0	0
1476395008	0	0
1509949440	0	0
1543503872	0	0
1577058304	0	0
1610612736	0	0
1644167168	0	0
1677721600	0	0
1711276032	0	0
1744830464	0	0
1778384896	0	0
1811939328	0	0
1845493760	0	0
1879048192	0	0
1912602624	0	0
1946157056	0	0
1979711488	0	0
2013265920	0	0
2046820352	0	0
2080374784	0	0
2113929216	0	0
2147483648	0	0
2214592512	0	0
2281701376	0	0
2348810240	0	0
2415919104	0	0
2483027968	0	0
2550136832	0	0
2617245696	0	0
2684354560	0	0
2751463424	0	0
2818572288	0	0
2885681152	0	0
2952790016	0	0
3019898880	0	0
3087007744	0	0
3154116608	0	0
3221225472	0	0
3288334336	0	0
3355443200	0	0
3422552064	0	0
3489660928	0	0
3556769792	0	0
3623878656	0	0
3690987520	0	0
3758096384	0	0
3825205248	0	0
3892314112	0	0
3959422976	0	0
4026531840	0	0
4093640704	0	0
4160749568	0	0
4227858432	0	0
~~~~~~~~~~Reuse Distance Profiler output end~~~~~~~~~~

DRAM Statistics
 CHANNEL 0
 RQ ROW_BUFFER_HIT:     297749  ROW_BUFFER_MISS:    1789279
 DBUS AVG_CONGESTED_CYCLE:    3.97552
 WQ ROW_BUFFER_HIT:     101489  ROW_BUFFER_MISS:    1264082  FULL:          0


CPU 0 Branch Prediction Accuracy: 91.5588% MPKI: 12.4858 Average ROB Occupancy at Mispredict: 36.0753
Branch type MPKI
BRANCH_DIRECT_JUMP: 1.33333e-06
BRANCH_INDIRECT: 0
BRANCH_CONDITIONAL: 12.4858
BRANCH_DIRECT_CALL: 0
BRANCH_INDIRECT_CALL: 0
BRANCH_RETURN: 0

