
*** ChampSim Multicore Out-of-Order Simulator ***

Warmup Instructions: 500000000
Simulation Instructions: 1500000000
Number of CPUs: 1
Off-chip DRAM Size: 4 GiB Channels: 1 Width: 64-bit Data Rate: 3200 MT/s

VirtualMemory physical capacity: 8588881920 num_ppages: 2096895
VirtualMemory page size: 4096 log2_page_size: 12

CPU 0 runs traces/401.bzip2-38B.champsimtrace.xz
CPU 0 Bimodal branch predictor
Basic BTB sets: 1024 ways: 8 indirect buffer size: 4096 RAS size: 64
Initializing LRU.
Initializing LRU.
Initializing LRU.
Initializing LRU.
Initializing rdLRU.
Initializing LRU.
Initializing LRU.
Heartbeat CPU 0 instructions: 10000002 cycles: 2500236 heartbeat IPC: 3.99962 cumulative IPC: 3.99962 (Simulation time: 0 hr 0 min 27 sec) 
Heartbeat CPU 0 instructions: 20000002 cycles: 5458924 heartbeat IPC: 3.37988 cumulative IPC: 3.66373 (Simulation time: 0 hr 1 min 8 sec) 
Heartbeat CPU 0 instructions: 30000000 cycles: 8875456 heartbeat IPC: 2.92694 cumulative IPC: 3.38011 (Simulation time: 0 hr 2 min 0 sec) 
Heartbeat CPU 0 instructions: 40000003 cycles: 11908820 heartbeat IPC: 3.29667 cumulative IPC: 3.35886 (Simulation time: 0 hr 2 min 39 sec) 
Heartbeat CPU 0 instructions: 50000003 cycles: 14608405 heartbeat IPC: 3.70427 cumulative IPC: 3.42269 (Simulation time: 0 hr 3 min 12 sec) 
Heartbeat CPU 0 instructions: 60000000 cycles: 17137416 heartbeat IPC: 3.95411 cumulative IPC: 3.50111 (Simulation time: 0 hr 3 min 44 sec) 
Heartbeat CPU 0 instructions: 70000002 cycles: 19667345 heartbeat IPC: 3.95268 cumulative IPC: 3.5592 (Simulation time: 0 hr 4 min 16 sec) 
Heartbeat CPU 0 instructions: 80000000 cycles: 22200400 heartbeat IPC: 3.9478 cumulative IPC: 3.60354 (Simulation time: 0 hr 4 min 47 sec) 
Heartbeat CPU 0 instructions: 90000003 cycles: 25165667 heartbeat IPC: 3.37238 cumulative IPC: 3.5763 (Simulation time: 0 hr 5 min 27 sec) 
Heartbeat CPU 0 instructions: 100000003 cycles: 28208192 heartbeat IPC: 3.28674 cumulative IPC: 3.54507 (Simulation time: 0 hr 6 min 10 sec) 
Heartbeat CPU 0 instructions: 110000004 cycles: 31099054 heartbeat IPC: 3.45918 cumulative IPC: 3.53709 (Simulation time: 0 hr 6 min 50 sec) 
Heartbeat CPU 0 instructions: 120000003 cycles: 33972381 heartbeat IPC: 3.48029 cumulative IPC: 3.53228 (Simulation time: 0 hr 7 min 30 sec) 
Heartbeat CPU 0 instructions: 130000002 cycles: 36811182 heartbeat IPC: 3.52261 cumulative IPC: 3.53154 (Simulation time: 0 hr 8 min 9 sec) 
Heartbeat CPU 0 instructions: 140000000 cycles: 39633237 heartbeat IPC: 3.54352 cumulative IPC: 3.53239 (Simulation time: 0 hr 8 min 47 sec) 
Heartbeat CPU 0 instructions: 150000000 cycles: 42433294 heartbeat IPC: 3.57136 cumulative IPC: 3.53496 (Simulation time: 0 hr 9 min 25 sec) 
Heartbeat CPU 0 instructions: 160000003 cycles: 45205922 heartbeat IPC: 3.60669 cumulative IPC: 3.53936 (Simulation time: 0 hr 10 min 3 sec) 
Heartbeat CPU 0 instructions: 170000004 cycles: 47978581 heartbeat IPC: 3.60665 cumulative IPC: 3.54325 (Simulation time: 0 hr 10 min 41 sec) 
Heartbeat CPU 0 instructions: 180000000 cycles: 50746987 heartbeat IPC: 3.61219 cumulative IPC: 3.54701 (Simulation time: 0 hr 11 min 18 sec) 
Heartbeat CPU 0 instructions: 190000004 cycles: 53547196 heartbeat IPC: 3.57116 cumulative IPC: 3.54827 (Simulation time: 0 hr 11 min 47 sec) 
Heartbeat CPU 0 instructions: 200000000 cycles: 56051123 heartbeat IPC: 3.99373 cumulative IPC: 3.56817 (Simulation time: 0 hr 12 min 14 sec) 
Heartbeat CPU 0 instructions: 210000000 cycles: 58551773 heartbeat IPC: 3.99896 cumulative IPC: 3.58657 (Simulation time: 0 hr 12 min 43 sec) 
Heartbeat CPU 0 instructions: 220000004 cycles: 62002101 heartbeat IPC: 2.89828 cumulative IPC: 3.54827 (Simulation time: 0 hr 13 min 36 sec) 
Heartbeat CPU 0 instructions: 230000001 cycles: 65409469 heartbeat IPC: 2.93482 cumulative IPC: 3.51631 (Simulation time: 0 hr 14 min 28 sec) 
Heartbeat CPU 0 instructions: 240000004 cycles: 68134206 heartbeat IPC: 3.67008 cumulative IPC: 3.52246 (Simulation time: 0 hr 14 min 57 sec) 
Heartbeat CPU 0 instructions: 250000001 cycles: 70737958 heartbeat IPC: 3.84061 cumulative IPC: 3.53417 (Simulation time: 0 hr 15 min 31 sec) 
Heartbeat CPU 0 instructions: 260000002 cycles: 73256594 heartbeat IPC: 3.9704 cumulative IPC: 3.54917 (Simulation time: 0 hr 16 min 3 sec) 
Heartbeat CPU 0 instructions: 270000001 cycles: 75796208 heartbeat IPC: 3.93761 cumulative IPC: 3.56218 (Simulation time: 0 hr 16 min 34 sec) 
Heartbeat CPU 0 instructions: 280000003 cycles: 78486025 heartbeat IPC: 3.71773 cumulative IPC: 3.56751 (Simulation time: 0 hr 17 min 8 sec) 
Heartbeat CPU 0 instructions: 290000004 cycles: 81459002 heartbeat IPC: 3.36363 cumulative IPC: 3.56007 (Simulation time: 0 hr 17 min 50 sec) 
Heartbeat CPU 0 instructions: 300000000 cycles: 84391800 heartbeat IPC: 3.40971 cumulative IPC: 3.55485 (Simulation time: 0 hr 18 min 31 sec) 
Heartbeat CPU 0 instructions: 310000000 cycles: 87259955 heartbeat IPC: 3.48656 cumulative IPC: 3.5526 (Simulation time: 0 hr 19 min 10 sec) 
Heartbeat CPU 0 instructions: 320000001 cycles: 90104737 heartbeat IPC: 3.51521 cumulative IPC: 3.55142 (Simulation time: 0 hr 19 min 50 sec) 
Heartbeat CPU 0 instructions: 330000000 cycles: 92902842 heartbeat IPC: 3.57385 cumulative IPC: 3.5521 (Simulation time: 0 hr 20 min 28 sec) 
Heartbeat CPU 0 instructions: 340000000 cycles: 95687564 heartbeat IPC: 3.59102 cumulative IPC: 3.55323 (Simulation time: 0 hr 21 min 6 sec) 
Heartbeat CPU 0 instructions: 350000004 cycles: 98456643 heartbeat IPC: 3.61131 cumulative IPC: 3.55486 (Simulation time: 0 hr 21 min 44 sec) 
Heartbeat CPU 0 instructions: 360000002 cycles: 101236921 heartbeat IPC: 3.59676 cumulative IPC: 3.55602 (Simulation time: 0 hr 22 min 21 sec) 
Heartbeat CPU 0 instructions: 370000004 cycles: 103989201 heartbeat IPC: 3.63335 cumulative IPC: 3.55806 (Simulation time: 0 hr 22 min 58 sec) 
Heartbeat CPU 0 instructions: 380000001 cycles: 106773898 heartbeat IPC: 3.59105 cumulative IPC: 3.55892 (Simulation time: 0 hr 23 min 32 sec) 
Heartbeat CPU 0 instructions: 390000002 cycles: 109277482 heartbeat IPC: 3.99427 cumulative IPC: 3.5689 (Simulation time: 0 hr 23 min 59 sec) 
Heartbeat CPU 0 instructions: 400000000 cycles: 112199717 heartbeat IPC: 3.42204 cumulative IPC: 3.56507 (Simulation time: 0 hr 24 min 40 sec) 
Heartbeat CPU 0 instructions: 410000001 cycles: 115584219 heartbeat IPC: 2.95464 cumulative IPC: 3.5472 (Simulation time: 0 hr 25 min 31 sec) 
Heartbeat CPU 0 instructions: 420000001 cycles: 118519723 heartbeat IPC: 3.40657 cumulative IPC: 3.54371 (Simulation time: 0 hr 26 min 6 sec) 
Heartbeat CPU 0 instructions: 430000001 cycles: 121182653 heartbeat IPC: 3.75526 cumulative IPC: 3.54836 (Simulation time: 0 hr 26 min 40 sec) 
Heartbeat CPU 0 instructions: 440000001 cycles: 123702690 heartbeat IPC: 3.9682 cumulative IPC: 3.55692 (Simulation time: 0 hr 27 min 12 sec) 
Heartbeat CPU 0 instructions: 450000001 cycles: 126243507 heartbeat IPC: 3.93574 cumulative IPC: 3.56454 (Simulation time: 0 hr 27 min 44 sec) 
Heartbeat CPU 0 instructions: 460000002 cycles: 128878071 heartbeat IPC: 3.79569 cumulative IPC: 3.56927 (Simulation time: 0 hr 28 min 16 sec) 
Heartbeat CPU 0 instructions: 470000002 cycles: 131967781 heartbeat IPC: 3.23655 cumulative IPC: 3.56148 (Simulation time: 0 hr 28 min 59 sec) 
Heartbeat CPU 0 instructions: 480000004 cycles: 135262094 heartbeat IPC: 3.03553 cumulative IPC: 3.54867 (Simulation time: 0 hr 29 min 46 sec) 
Heartbeat CPU 0 instructions: 490000001 cycles: 138312018 heartbeat IPC: 3.27877 cumulative IPC: 3.54271 (Simulation time: 0 hr 30 min 28 sec) 
Heartbeat CPU 0 instructions: 500000003 cycles: 141242692 heartbeat IPC: 3.41218 cumulative IPC: 3.54001 (Simulation time: 0 hr 31 min 9 sec) 

Warmup complete CPU 0 instructions: 500000003 cycles: 141242692 (Simulation time: 0 hr 31 min 9 sec) 

Heartbeat CPU 0 instructions: 510000003 cycles: 148926667 heartbeat IPC: 1.30141 cumulative IPC: 1.30141 (Simulation time: 0 hr 31 min 48 sec) 
Heartbeat CPU 0 instructions: 520000000 cycles: 157216395 heartbeat IPC: 1.20631 cumulative IPC: 1.25206 (Simulation time: 0 hr 32 min 26 sec) 
Heartbeat CPU 0 instructions: 530000001 cycles: 164946722 heartbeat IPC: 1.29361 cumulative IPC: 1.26561 (Simulation time: 0 hr 33 min 5 sec) 
Heartbeat CPU 0 instructions: 540000001 cycles: 173188916 heartbeat IPC: 1.21327 cumulative IPC: 1.2521 (Simulation time: 0 hr 33 min 42 sec) 
Heartbeat CPU 0 instructions: 550000004 cycles: 181851436 heartbeat IPC: 1.1544 cumulative IPC: 1.23126 (Simulation time: 0 hr 34 min 20 sec) 
Heartbeat CPU 0 instructions: 560000003 cycles: 189842396 heartbeat IPC: 1.25141 cumulative IPC: 1.23458 (Simulation time: 0 hr 34 min 59 sec) 
Heartbeat CPU 0 instructions: 570000000 cycles: 197847658 heartbeat IPC: 1.24918 cumulative IPC: 1.23664 (Simulation time: 0 hr 35 min 37 sec) 
Heartbeat CPU 0 instructions: 580000000 cycles: 205524046 heartbeat IPC: 1.3027 cumulative IPC: 1.24453 (Simulation time: 0 hr 36 min 24 sec) 
Heartbeat CPU 0 instructions: 590000001 cycles: 211840488 heartbeat IPC: 1.58317 cumulative IPC: 1.27483 (Simulation time: 0 hr 36 min 53 sec) 
Heartbeat CPU 0 instructions: 600000000 cycles: 221410011 heartbeat IPC: 1.04498 cumulative IPC: 1.24739 (Simulation time: 0 hr 37 min 50 sec) 
Heartbeat CPU 0 instructions: 610000002 cycles: 231545917 heartbeat IPC: 0.986592 cumulative IPC: 1.21812 (Simulation time: 0 hr 39 min 4 sec) 
Heartbeat CPU 0 instructions: 620000001 cycles: 239726341 heartbeat IPC: 1.22243 cumulative IPC: 1.21848 (Simulation time: 0 hr 39 min 49 sec) 
Heartbeat CPU 0 instructions: 630000001 cycles: 246305942 heartbeat IPC: 1.51985 cumulative IPC: 1.23735 (Simulation time: 0 hr 40 min 36 sec) 
Heartbeat CPU 0 instructions: 640000003 cycles: 252830681 heartbeat IPC: 1.53263 cumulative IPC: 1.25462 (Simulation time: 0 hr 41 min 25 sec) 
Heartbeat CPU 0 instructions: 650000001 cycles: 257926524 heartbeat IPC: 1.96238 cumulative IPC: 1.28553 (Simulation time: 0 hr 42 min 8 sec) 
Heartbeat CPU 0 instructions: 660000001 cycles: 264873888 heartbeat IPC: 1.43939 cumulative IPC: 1.29417 (Simulation time: 0 hr 43 min 10 sec) 
Heartbeat CPU 0 instructions: 670000001 cycles: 272710778 heartbeat IPC: 1.27602 cumulative IPC: 1.29309 (Simulation time: 0 hr 44 min 1 sec) 
Heartbeat CPU 0 instructions: 680000000 cycles: 280318114 heartbeat IPC: 1.31452 cumulative IPC: 1.29426 (Simulation time: 0 hr 44 min 43 sec) 
Heartbeat CPU 0 instructions: 690000004 cycles: 288585870 heartbeat IPC: 1.20952 cumulative IPC: 1.28951 (Simulation time: 0 hr 45 min 22 sec) 
Heartbeat CPU 0 instructions: 700000003 cycles: 296797710 heartbeat IPC: 1.21775 cumulative IPC: 1.28572 (Simulation time: 0 hr 46 min 2 sec) 
Heartbeat CPU 0 instructions: 710000003 cycles: 305053702 heartbeat IPC: 1.21124 cumulative IPC: 1.28197 (Simulation time: 0 hr 46 min 41 sec) 
Heartbeat CPU 0 instructions: 720000000 cycles: 313401008 heartbeat IPC: 1.19799 cumulative IPC: 1.27789 (Simulation time: 0 hr 47 min 19 sec) 
Heartbeat CPU 0 instructions: 730000000 cycles: 321751348 heartbeat IPC: 1.19756 cumulative IPC: 1.27418 (Simulation time: 0 hr 47 min 57 sec) 
Heartbeat CPU 0 instructions: 740000004 cycles: 330370000 heartbeat IPC: 1.16027 cumulative IPC: 1.26899 (Simulation time: 0 hr 48 min 34 sec) 
Heartbeat CPU 0 instructions: 750000001 cycles: 339122760 heartbeat IPC: 1.1425 cumulative IPC: 1.26339 (Simulation time: 0 hr 49 min 12 sec) 
Heartbeat CPU 0 instructions: 760000000 cycles: 348224773 heartbeat IPC: 1.09866 cumulative IPC: 1.25615 (Simulation time: 0 hr 49 min 52 sec) 
Heartbeat CPU 0 instructions: 770000001 cycles: 356198470 heartbeat IPC: 1.25412 cumulative IPC: 1.25607 (Simulation time: 0 hr 50 min 43 sec) 
Heartbeat CPU 0 instructions: 780000000 cycles: 362173708 heartbeat IPC: 1.67357 cumulative IPC: 1.26736 (Simulation time: 0 hr 51 min 9 sec) 
Heartbeat CPU 0 instructions: 790000004 cycles: 370241699 heartbeat IPC: 1.23947 cumulative IPC: 1.26638 (Simulation time: 0 hr 51 min 47 sec) 
Heartbeat CPU 0 instructions: 800000000 cycles: 380374424 heartbeat IPC: 0.986901 cumulative IPC: 1.25454 (Simulation time: 0 hr 53 min 2 sec) 
Heartbeat CPU 0 instructions: 810000001 cycles: 390454127 heartbeat IPC: 0.992093 cumulative IPC: 1.24392 (Simulation time: 0 hr 54 min 16 sec) 
Heartbeat CPU 0 instructions: 820000004 cycles: 397335596 heartbeat IPC: 1.45318 cumulative IPC: 1.24955 (Simulation time: 0 hr 54 min 52 sec) 
Heartbeat CPU 0 instructions: 830000000 cycles: 405235359 heartbeat IPC: 1.26586 cumulative IPC: 1.25003 (Simulation time: 0 hr 55 min 36 sec) 
Heartbeat CPU 0 instructions: 840000000 cycles: 412324036 heartbeat IPC: 1.4107 cumulative IPC: 1.25424 (Simulation time: 0 hr 56 min 23 sec) 
Heartbeat CPU 0 instructions: 850000001 cycles: 417258162 heartbeat IPC: 2.0267 cumulative IPC: 1.26804 (Simulation time: 0 hr 57 min 9 sec) 
Heartbeat CPU 0 instructions: 860000001 cycles: 425226875 heartbeat IPC: 1.25491 cumulative IPC: 1.26768 (Simulation time: 0 hr 58 min 5 sec) 
Heartbeat CPU 0 instructions: 870000003 cycles: 433637933 heartbeat IPC: 1.18891 cumulative IPC: 1.26541 (Simulation time: 0 hr 58 min 47 sec) 
Heartbeat CPU 0 instructions: 880000003 cycles: 442081302 heartbeat IPC: 1.18436 cumulative IPC: 1.26314 (Simulation time: 0 hr 59 min 26 sec) 
Heartbeat CPU 0 instructions: 890000000 cycles: 450161979 heartbeat IPC: 1.23752 cumulative IPC: 1.26247 (Simulation time: 1 hr 0 min 4 sec) 
Heartbeat CPU 0 instructions: 900000002 cycles: 458936297 heartbeat IPC: 1.13969 cumulative IPC: 1.25907 (Simulation time: 1 hr 0 min 41 sec) 
Heartbeat CPU 0 instructions: 910000003 cycles: 466487521 heartbeat IPC: 1.32429 cumulative IPC: 1.26059 (Simulation time: 1 hr 1 min 23 sec) 
Heartbeat CPU 0 instructions: 920000000 cycles: 473966005 heartbeat IPC: 1.33717 cumulative IPC: 1.26231 (Simulation time: 1 hr 2 min 3 sec) 
Heartbeat CPU 0 instructions: 930000003 cycles: 482920742 heartbeat IPC: 1.11673 cumulative IPC: 1.25849 (Simulation time: 1 hr 2 min 40 sec) 
Heartbeat CPU 0 instructions: 940000000 cycles: 491789500 heartbeat IPC: 1.12755 cumulative IPC: 1.25518 (Simulation time: 1 hr 3 min 17 sec) 
Heartbeat CPU 0 instructions: 950000000 cycles: 500166243 heartbeat IPC: 1.19378 cumulative IPC: 1.25375 (Simulation time: 1 hr 3 min 53 sec) 
Heartbeat CPU 0 instructions: 960000002 cycles: 508042035 heartbeat IPC: 1.26971 cumulative IPC: 1.25409 (Simulation time: 1 hr 4 min 32 sec) 
Heartbeat CPU 0 instructions: 970000001 cycles: 515166516 heartbeat IPC: 1.40361 cumulative IPC: 1.25694 (Simulation time: 1 hr 5 min 12 sec) 
Heartbeat CPU 0 instructions: 980000001 cycles: 522747759 heartbeat IPC: 1.31904 cumulative IPC: 1.25817 (Simulation time: 1 hr 5 min 42 sec) 
Heartbeat CPU 0 instructions: 990000000 cycles: 532142895 heartbeat IPC: 1.06438 cumulative IPC: 1.25352 (Simulation time: 1 hr 6 min 35 sec) 
Heartbeat CPU 0 instructions: 1000000003 cycles: 542311610 heartbeat IPC: 0.983409 cumulative IPC: 1.24667 (Simulation time: 1 hr 7 min 49 sec) 
Heartbeat CPU 0 instructions: 1010000004 cycles: 551684726 heartbeat IPC: 1.06688 cumulative IPC: 1.24256 (Simulation time: 1 hr 8 min 41 sec) 
Heartbeat CPU 0 instructions: 1020000002 cycles: 557478719 heartbeat IPC: 1.72593 cumulative IPC: 1.24929 (Simulation time: 1 hr 9 min 27 sec) 
Heartbeat CPU 0 instructions: 1030000000 cycles: 563828638 heartbeat IPC: 1.57482 cumulative IPC: 1.25418 (Simulation time: 1 hr 10 min 17 sec) 
Heartbeat CPU 0 instructions: 1040000004 cycles: 568897194 heartbeat IPC: 1.97295 cumulative IPC: 1.2627 (Simulation time: 1 hr 11 min 0 sec) 
Heartbeat CPU 0 instructions: 1050000002 cycles: 575495708 heartbeat IPC: 1.51549 cumulative IPC: 1.26654 (Simulation time: 1 hr 12 min 1 sec) 
Heartbeat CPU 0 instructions: 1060000000 cycles: 580659650 heartbeat IPC: 1.9365 cumulative IPC: 1.27442 (Simulation time: 1 hr 13 min 17 sec) 
Heartbeat CPU 0 instructions: 1070000001 cycles: 585630991 heartbeat IPC: 2.01153 cumulative IPC: 1.28266 (Simulation time: 1 hr 14 min 29 sec) 
Heartbeat CPU 0 instructions: 1080000001 cycles: 591565639 heartbeat IPC: 1.68502 cumulative IPC: 1.28796 (Simulation time: 1 hr 15 min 28 sec) 
Heartbeat CPU 0 instructions: 1090000000 cycles: 598108049 heartbeat IPC: 1.52849 cumulative IPC: 1.29141 (Simulation time: 1 hr 16 min 18 sec) 
Heartbeat CPU 0 instructions: 1100000003 cycles: 604490661 heartbeat IPC: 1.56676 cumulative IPC: 1.2952 (Simulation time: 1 hr 17 min 6 sec) 
Heartbeat CPU 0 instructions: 1110000003 cycles: 611404773 heartbeat IPC: 1.44632 cumulative IPC: 1.29742 (Simulation time: 1 hr 17 min 49 sec) 
Heartbeat CPU 0 instructions: 1120000000 cycles: 618079162 heartbeat IPC: 1.49826 cumulative IPC: 1.30024 (Simulation time: 1 hr 18 min 33 sec) 
Heartbeat CPU 0 instructions: 1130000003 cycles: 625292890 heartbeat IPC: 1.38625 cumulative IPC: 1.30152 (Simulation time: 1 hr 19 min 13 sec) 
Heartbeat CPU 0 instructions: 1140000001 cycles: 632179319 heartbeat IPC: 1.45213 cumulative IPC: 1.30363 (Simulation time: 1 hr 19 min 53 sec) 
Heartbeat CPU 0 instructions: 1150000000 cycles: 639412000 heartbeat IPC: 1.38261 cumulative IPC: 1.30478 (Simulation time: 1 hr 20 min 32 sec) 
Heartbeat CPU 0 instructions: 1160000000 cycles: 647228017 heartbeat IPC: 1.27942 cumulative IPC: 1.30439 (Simulation time: 1 hr 21 min 11 sec) 
Heartbeat CPU 0 instructions: 1170000001 cycles: 654489139 heartbeat IPC: 1.3772 cumulative IPC: 1.30542 (Simulation time: 1 hr 21 min 51 sec) 
Heartbeat CPU 0 instructions: 1180000001 cycles: 662185507 heartbeat IPC: 1.29931 cumulative IPC: 1.30533 (Simulation time: 1 hr 22 min 30 sec) 
Heartbeat CPU 0 instructions: 1190000001 cycles: 669951464 heartbeat IPC: 1.28767 cumulative IPC: 1.30507 (Simulation time: 1 hr 23 min 8 sec) 
Heartbeat CPU 0 instructions: 1200000001 cycles: 677982396 heartbeat IPC: 1.24519 cumulative IPC: 1.30417 (Simulation time: 1 hr 23 min 47 sec) 
Heartbeat CPU 0 instructions: 1210000000 cycles: 685093512 heartbeat IPC: 1.40625 cumulative IPC: 1.30551 (Simulation time: 1 hr 24 min 27 sec) 
Heartbeat CPU 0 instructions: 1220000004 cycles: 692821806 heartbeat IPC: 1.29395 cumulative IPC: 1.30534 (Simulation time: 1 hr 25 min 7 sec) 
Heartbeat CPU 0 instructions: 1230000001 cycles: 700724115 heartbeat IPC: 1.26545 cumulative IPC: 1.30478 (Simulation time: 1 hr 25 min 46 sec) 
Heartbeat CPU 0 instructions: 1240000000 cycles: 708512994 heartbeat IPC: 1.28388 cumulative IPC: 1.30449 (Simulation time: 1 hr 26 min 34 sec) 
Heartbeat CPU 0 instructions: 1250000001 cycles: 715285271 heartbeat IPC: 1.47661 cumulative IPC: 1.30652 (Simulation time: 1 hr 27 min 7 sec) 
Heartbeat CPU 0 instructions: 1260000000 cycles: 725001710 heartbeat IPC: 1.02918 cumulative IPC: 1.30191 (Simulation time: 1 hr 28 min 10 sec) 
Heartbeat CPU 0 instructions: 1270000004 cycles: 734907839 heartbeat IPC: 1.00948 cumulative IPC: 1.29703 (Simulation time: 1 hr 29 min 13 sec) 
Heartbeat CPU 0 instructions: 1280000003 cycles: 741316750 heartbeat IPC: 1.56033 cumulative IPC: 1.29984 (Simulation time: 1 hr 29 min 58 sec) 
Heartbeat CPU 0 instructions: 1290000000 cycles: 747433722 heartbeat IPC: 1.6348 cumulative IPC: 1.30322 (Simulation time: 1 hr 30 min 48 sec) 
Heartbeat CPU 0 instructions: 1300000001 cycles: 752317547 heartbeat IPC: 2.04758 cumulative IPC: 1.30917 (Simulation time: 1 hr 31 min 32 sec) 
Heartbeat CPU 0 instructions: 1310000004 cycles: 758858803 heartbeat IPC: 1.52876 cumulative IPC: 1.31149 (Simulation time: 1 hr 32 min 32 sec) 
Heartbeat CPU 0 instructions: 1320000002 cycles: 763686502 heartbeat IPC: 2.07138 cumulative IPC: 1.31739 (Simulation time: 1 hr 33 min 54 sec) 
Heartbeat CPU 0 instructions: 1330000003 cycles: 768034760 heartbeat IPC: 2.29977 cumulative IPC: 1.3242 (Simulation time: 1 hr 35 min 13 sec) 
Heartbeat CPU 0 instructions: 1340000001 cycles: 772332650 heartbeat IPC: 2.32672 cumulative IPC: 1.33103 (Simulation time: 1 hr 36 min 31 sec) 
Heartbeat CPU 0 instructions: 1350000000 cycles: 776705657 heartbeat IPC: 2.28676 cumulative IPC: 1.33761 (Simulation time: 1 hr 37 min 46 sec) 
Heartbeat CPU 0 instructions: 1360000004 cycles: 780878556 heartbeat IPC: 2.39642 cumulative IPC: 1.34451 (Simulation time: 1 hr 39 min 3 sec) 
Heartbeat CPU 0 instructions: 1370000002 cycles: 785118068 heartbeat IPC: 2.35876 cumulative IPC: 1.35119 (Simulation time: 1 hr 40 min 20 sec) 
Heartbeat CPU 0 instructions: 1380000002 cycles: 789614255 heartbeat IPC: 2.22411 cumulative IPC: 1.35725 (Simulation time: 1 hr 41 min 32 sec) 
Heartbeat CPU 0 instructions: 1390000000 cycles: 794530756 heartbeat IPC: 2.03397 cumulative IPC: 1.36234 (Simulation time: 1 hr 42 min 39 sec) 
Heartbeat CPU 0 instructions: 1400000003 cycles: 800198158 heartbeat IPC: 1.76448 cumulative IPC: 1.3658 (Simulation time: 1 hr 43 min 37 sec) 
Heartbeat CPU 0 instructions: 1410000002 cycles: 806050927 heartbeat IPC: 1.70859 cumulative IPC: 1.36882 (Simulation time: 1 hr 44 min 31 sec) 
Heartbeat CPU 0 instructions: 1420000000 cycles: 811796236 heartbeat IPC: 1.74055 cumulative IPC: 1.372 (Simulation time: 1 hr 45 min 18 sec) 
Heartbeat CPU 0 instructions: 1430000001 cycles: 817943408 heartbeat IPC: 1.62676 cumulative IPC: 1.37432 (Simulation time: 1 hr 46 min 5 sec) 
Heartbeat CPU 0 instructions: 1440000004 cycles: 824057276 heartbeat IPC: 1.63563 cumulative IPC: 1.37665 (Simulation time: 1 hr 46 min 52 sec) 
Heartbeat CPU 0 instructions: 1450000001 cycles: 830808948 heartbeat IPC: 1.48111 cumulative IPC: 1.37768 (Simulation time: 1 hr 47 min 33 sec) 
Heartbeat CPU 0 instructions: 1460000004 cycles: 837125938 heartbeat IPC: 1.58303 cumulative IPC: 1.37954 (Simulation time: 1 hr 48 min 16 sec) 
Heartbeat CPU 0 instructions: 1470000002 cycles: 843832604 heartbeat IPC: 1.49105 cumulative IPC: 1.38061 (Simulation time: 1 hr 48 min 56 sec) 
Heartbeat CPU 0 instructions: 1480000002 cycles: 850132466 heartbeat IPC: 1.58734 cumulative IPC: 1.38244 (Simulation time: 1 hr 49 min 36 sec) 
Heartbeat CPU 0 instructions: 1490000000 cycles: 857093416 heartbeat IPC: 1.43659 cumulative IPC: 1.38297 (Simulation time: 1 hr 50 min 15 sec) 
Heartbeat CPU 0 instructions: 1500000002 cycles: 863341194 heartbeat IPC: 1.60057 cumulative IPC: 1.38485 (Simulation time: 1 hr 50 min 58 sec) 
Heartbeat CPU 0 instructions: 1510000003 cycles: 870635615 heartbeat IPC: 1.37091 cumulative IPC: 1.38471 (Simulation time: 1 hr 51 min 36 sec) 
Heartbeat CPU 0 instructions: 1520000000 cycles: 878085495 heartbeat IPC: 1.3423 cumulative IPC: 1.38428 (Simulation time: 1 hr 52 min 15 sec) 
Heartbeat CPU 0 instructions: 1530000001 cycles: 883892855 heartbeat IPC: 1.72195 cumulative IPC: 1.38692 (Simulation time: 1 hr 52 min 58 sec) 
Heartbeat CPU 0 instructions: 1540000001 cycles: 891066416 heartbeat IPC: 1.39401 cumulative IPC: 1.38699 (Simulation time: 1 hr 53 min 37 sec) 
Heartbeat CPU 0 instructions: 1550000003 cycles: 898234748 heartbeat IPC: 1.39502 cumulative IPC: 1.38707 (Simulation time: 1 hr 54 min 16 sec) 
Heartbeat CPU 0 instructions: 1560000001 cycles: 905037960 heartbeat IPC: 1.46989 cumulative IPC: 1.38781 (Simulation time: 1 hr 54 min 58 sec) 
Heartbeat CPU 0 instructions: 1570000000 cycles: 911849569 heartbeat IPC: 1.46808 cumulative IPC: 1.38852 (Simulation time: 1 hr 55 min 38 sec) 
Heartbeat CPU 0 instructions: 1580000000 cycles: 919284963 heartbeat IPC: 1.34492 cumulative IPC: 1.3881 (Simulation time: 1 hr 56 min 17 sec) 
Heartbeat CPU 0 instructions: 1590000004 cycles: 926475289 heartbeat IPC: 1.39076 cumulative IPC: 1.38812 (Simulation time: 1 hr 56 min 56 sec) 
Heartbeat CPU 0 instructions: 1600000002 cycles: 933546908 heartbeat IPC: 1.4141 cumulative IPC: 1.38836 (Simulation time: 1 hr 57 min 35 sec) 
Heartbeat CPU 0 instructions: 1610000004 cycles: 941043270 heartbeat IPC: 1.33398 cumulative IPC: 1.38785 (Simulation time: 1 hr 58 min 19 sec) 
Heartbeat CPU 0 instructions: 1620000004 cycles: 948170869 heartbeat IPC: 1.403 cumulative IPC: 1.38798 (Simulation time: 1 hr 59 min 7 sec) 
Heartbeat CPU 0 instructions: 1630000004 cycles: 957156880 heartbeat IPC: 1.11284 cumulative IPC: 1.38495 (Simulation time: 2 hr 0 min 9 sec) 
Heartbeat CPU 0 instructions: 1640000004 cycles: 965293700 heartbeat IPC: 1.22898 cumulative IPC: 1.38341 (Simulation time: 2 hr 1 min 0 sec) 
Heartbeat CPU 0 instructions: 1650000001 cycles: 972152672 heartbeat IPC: 1.45794 cumulative IPC: 1.38402 (Simulation time: 2 hr 1 min 47 sec) 
Heartbeat CPU 0 instructions: 1660000004 cycles: 978898411 heartbeat IPC: 1.48242 cumulative IPC: 1.38482 (Simulation time: 2 hr 2 min 33 sec) 
Heartbeat CPU 0 instructions: 1670000000 cycles: 984025616 heartbeat IPC: 1.95038 cumulative IPC: 1.38826 (Simulation time: 2 hr 3 min 24 sec) 
Heartbeat CPU 0 instructions: 1680000001 cycles: 990218622 heartbeat IPC: 1.61472 cumulative IPC: 1.38991 (Simulation time: 2 hr 4 min 31 sec) 
Heartbeat CPU 0 instructions: 1690000003 cycles: 998323161 heartbeat IPC: 1.23388 cumulative IPC: 1.38843 (Simulation time: 2 hr 5 min 19 sec) 
Heartbeat CPU 0 instructions: 1700000003 cycles: 1006762812 heartbeat IPC: 1.18488 cumulative IPC: 1.38645 (Simulation time: 2 hr 6 min 0 sec) 
Heartbeat CPU 0 instructions: 1710000002 cycles: 1015709283 heartbeat IPC: 1.11776 cumulative IPC: 1.3837 (Simulation time: 2 hr 6 min 39 sec) 
Heartbeat CPU 0 instructions: 1720000002 cycles: 1024245145 heartbeat IPC: 1.17153 cumulative IPC: 1.38165 (Simulation time: 2 hr 7 min 16 sec) 
Heartbeat CPU 0 instructions: 1730000000 cycles: 1033037687 heartbeat IPC: 1.13733 cumulative IPC: 1.37924 (Simulation time: 2 hr 7 min 54 sec) 
Heartbeat CPU 0 instructions: 1740000002 cycles: 1041642923 heartbeat IPC: 1.16208 cumulative IPC: 1.37717 (Simulation time: 2 hr 8 min 32 sec) 
Heartbeat CPU 0 instructions: 1750000003 cycles: 1050584139 heartbeat IPC: 1.11842 cumulative IPC: 1.37462 (Simulation time: 2 hr 9 min 10 sec) 
Heartbeat CPU 0 instructions: 1760000003 cycles: 1059663328 heartbeat IPC: 1.10142 cumulative IPC: 1.37192 (Simulation time: 2 hr 9 min 47 sec) 
Heartbeat CPU 0 instructions: 1770000004 cycles: 1068466254 heartbeat IPC: 1.13599 cumulative IPC: 1.36968 (Simulation time: 2 hr 10 min 25 sec) 
Heartbeat CPU 0 instructions: 1780000001 cycles: 1075892601 heartbeat IPC: 1.34656 cumulative IPC: 1.3695 (Simulation time: 2 hr 11 min 10 sec) 
Heartbeat CPU 0 instructions: 1790000003 cycles: 1082577208 heartbeat IPC: 1.49597 cumulative IPC: 1.37039 (Simulation time: 2 hr 11 min 39 sec) 
Heartbeat CPU 0 instructions: 1800000000 cycles: 1091846777 heartbeat IPC: 1.0788 cumulative IPC: 1.36755 (Simulation time: 2 hr 12 min 31 sec) 
Heartbeat CPU 0 instructions: 1810000002 cycles: 1102031387 heartbeat IPC: 0.981874 cumulative IPC: 1.36346 (Simulation time: 2 hr 13 min 44 sec) 
Heartbeat CPU 0 instructions: 1820000001 cycles: 1111513908 heartbeat IPC: 1.05457 cumulative IPC: 1.36044 (Simulation time: 2 hr 14 min 37 sec) 
Heartbeat CPU 0 instructions: 1830000000 cycles: 1117705330 heartbeat IPC: 1.61514 cumulative IPC: 1.36206 (Simulation time: 2 hr 15 min 22 sec) 
Heartbeat CPU 0 instructions: 1840000000 cycles: 1124169999 heartbeat IPC: 1.54687 cumulative IPC: 1.36327 (Simulation time: 2 hr 16 min 10 sec) 
Heartbeat CPU 0 instructions: 1850000003 cycles: 1129761458 heartbeat IPC: 1.78844 cumulative IPC: 1.36568 (Simulation time: 2 hr 16 min 52 sec) 
Heartbeat CPU 0 instructions: 1860000002 cycles: 1136240638 heartbeat IPC: 1.54341 cumulative IPC: 1.36684 (Simulation time: 2 hr 17 min 51 sec) 
Heartbeat CPU 0 instructions: 1870000000 cycles: 1145035098 heartbeat IPC: 1.13708 cumulative IPC: 1.36482 (Simulation time: 2 hr 18 min 37 sec) 
Heartbeat CPU 0 instructions: 1880000002 cycles: 1153000571 heartbeat IPC: 1.25542 cumulative IPC: 1.36396 (Simulation time: 2 hr 19 min 18 sec) 
Heartbeat CPU 0 instructions: 1890000000 cycles: 1161262453 heartbeat IPC: 1.21038 cumulative IPC: 1.36272 (Simulation time: 2 hr 19 min 57 sec) 
Heartbeat CPU 0 instructions: 1900000004 cycles: 1169383015 heartbeat IPC: 1.23144 cumulative IPC: 1.36168 (Simulation time: 2 hr 20 min 35 sec) 
Heartbeat CPU 0 instructions: 1910000000 cycles: 1177394565 heartbeat IPC: 1.2482 cumulative IPC: 1.3608 (Simulation time: 2 hr 21 min 14 sec) 
Heartbeat CPU 0 instructions: 1920000003 cycles: 1185700287 heartbeat IPC: 1.20399 cumulative IPC: 1.35956 (Simulation time: 2 hr 21 min 52 sec) 
Heartbeat CPU 0 instructions: 1930000000 cycles: 1193985992 heartbeat IPC: 1.2069 cumulative IPC: 1.35836 (Simulation time: 2 hr 22 min 31 sec) 
Heartbeat CPU 0 instructions: 1940000001 cycles: 1202457055 heartbeat IPC: 1.18049 cumulative IPC: 1.35694 (Simulation time: 2 hr 23 min 8 sec) 
Heartbeat CPU 0 instructions: 1950000004 cycles: 1211232717 heartbeat IPC: 1.13952 cumulative IPC: 1.35515 (Simulation time: 2 hr 23 min 45 sec) 
Heartbeat CPU 0 instructions: 1960000001 cycles: 1219600064 heartbeat IPC: 1.19512 cumulative IPC: 1.35391 (Simulation time: 2 hr 24 min 23 sec) 
Heartbeat CPU 0 instructions: 1970000002 cycles: 1228215401 heartbeat IPC: 1.16072 cumulative IPC: 1.35238 (Simulation time: 2 hr 25 min 5 sec) 
Heartbeat CPU 0 instructions: 1980000000 cycles: 1234626398 heartbeat IPC: 1.55982 cumulative IPC: 1.3536 (Simulation time: 2 hr 25 min 43 sec) 
Heartbeat CPU 0 instructions: 1990000003 cycles: 1242079536 heartbeat IPC: 1.34172 cumulative IPC: 1.35352 (Simulation time: 2 hr 26 min 15 sec) 
*** Reached end of trace: traces/401.bzip2-38B.champsimtrace.xz
Heartbeat CPU 0 instructions: 2000000000 cycles: 1251985480 heartbeat IPC: 1.00949 cumulative IPC: 1.35045 (Simulation time: 2 hr 27 min 23 sec) 
Finished CPU 0 instructions: 1500000000 cycles: 1110742797 cumulative IPC: 1.35045 (Simulation time: 2 hr 27 min 23 sec) 

ChampSim completed all CPUs

Region of Interest Statistics

CPU 0 cumulative IPC: 1.35045 instructions: 1500000000 cycles: 1110742797
cpu0_DTLB TOTAL     ACCESS:  382835846  HIT:  376993037  MISS:    5842809
cpu0_DTLB LOAD      ACCESS:  291658760  HIT:  288539523  MISS:    3119237
cpu0_DTLB RFO       ACCESS:   91177086  HIT:   88453514  MISS:    2723572
cpu0_DTLB PREFETCH  ACCESS:          0  HIT:          0  MISS:          0
cpu0_DTLB WRITEBACK ACCESS:          0  HIT:          0  MISS:          0
cpu0_DTLB TRANSLATION ACCESS:          0  HIT:          0  MISS:          0
cpu0_DTLB PREFETCH  REQUESTED:          0  ISSUED:          0  USEFUL:          0  USELESS:          0
cpu0_DTLB AVERAGE MISS LATENCY: 9.0932 cycles
cpu0_ITLB TOTAL     ACCESS:   87309119  HIT:   87309119  MISS:          0
cpu0_ITLB LOAD      ACCESS:   87309119  HIT:   87309119  MISS:          0
cpu0_ITLB RFO       ACCESS:          0  HIT:          0  MISS:          0
cpu0_ITLB PREFETCH  ACCESS:          0  HIT:          0  MISS:          0
cpu0_ITLB WRITEBACK ACCESS:          0  HIT:          0  MISS:          0
cpu0_ITLB TRANSLATION ACCESS:          0  HIT:          0  MISS:          0
cpu0_ITLB PREFETCH  REQUESTED:          0  ISSUED:          0  USEFUL:          0  USELESS:          0
cpu0_ITLB AVERAGE MISS LATENCY: -nan cycles
cpu0_L1I TOTAL     ACCESS:   64456029  HIT:   64456028  MISS:          1
cpu0_L1I LOAD      ACCESS:   64456029  HIT:   64456028  MISS:          1
cpu0_L1I RFO       ACCESS:          0  HIT:          0  MISS:          0
cpu0_L1I PREFETCH  ACCESS:          0  HIT:          0  MISS:          0
cpu0_L1I WRITEBACK ACCESS:          0  HIT:          0  MISS:          0
cpu0_L1I TRANSLATION ACCESS:          0  HIT:          0  MISS:          0
cpu0_L1I PREFETCH  REQUESTED:          0  ISSUED:          0  USEFUL:          0  USELESS:          0
cpu0_L1I AVERAGE MISS LATENCY: 195 cycles
cpu0_STLB TOTAL     ACCESS:    5842809  HIT:    5841898  MISS:        911
cpu0_STLB LOAD      ACCESS:    3119237  HIT:    3118469  MISS:        768
cpu0_STLB RFO       ACCESS:    2723572  HIT:    2723429  MISS:        143
cpu0_STLB PREFETCH  ACCESS:          0  HIT:          0  MISS:          0
cpu0_STLB WRITEBACK ACCESS:          0  HIT:          0  MISS:          0
cpu0_STLB TRANSLATION ACCESS:          0  HIT:          0  MISS:          0
cpu0_STLB PREFETCH  REQUESTED:          0  ISSUED:          0  USEFUL:          0  USELESS:          0
cpu0_STLB AVERAGE MISS LATENCY: 210.903 cycles
cpu0_L1D TOTAL     ACCESS:  389189183  HIT:  372003052  MISS:   17186131
cpu0_L1D LOAD      ACCESS:  240999489  HIT:  227267019  MISS:   13732470
cpu0_L1D RFO       ACCESS:  148188783  HIT:  144735135  MISS:    3453648
cpu0_L1D PREFETCH  ACCESS:          0  HIT:          0  MISS:          0
cpu0_L1D WRITEBACK ACCESS:          0  HIT:          0  MISS:          0
cpu0_L1D TRANSLATION ACCESS:        911  HIT:        898  MISS:         13
cpu0_L1D PREFETCH  REQUESTED:          0  ISSUED:          0  USEFUL:          0  USELESS:          0
cpu0_L1D AVERAGE MISS LATENCY: 49.2393 cycles
cpu0_L2C TOTAL     ACCESS:   21671411  HIT:   15245819  MISS:    6425592
cpu0_L2C LOAD      ACCESS:   13731281  HIT:    9498421  MISS:    4232860
cpu0_L2C RFO       ACCESS:    3452565  HIT:    1262993  MISS:    2189572
cpu0_L2C PREFETCH  ACCESS:          0  HIT:          0  MISS:          0
cpu0_L2C WRITEBACK ACCESS:    4487552  HIT:    4484405  MISS:       3147
cpu0_L2C TRANSLATION ACCESS:         13  HIT:          0  MISS:         13
cpu0_L2C PREFETCH  REQUESTED:          0  ISSUED:          0  USEFUL:          0  USELESS:          0
cpu0_L2C AVERAGE MISS LATENCY: 101.994 cycles
LLC TOTAL     ACCESS:    9108864  HIT:    7746425  MISS:    1362439
LLC LOAD      ACCESS:    4227955  HIT:    3491878  MISS:     736077
LLC RFO       ACCESS:    2189368  HIT:    1566642  MISS:     622726
LLC PREFETCH  ACCESS:          0  HIT:          0  MISS:          0
LLC WRITEBACK ACCESS:    2691528  HIT:    2687905  MISS:       3623
LLC TRANSLATION ACCESS:         13  HIT:          0  MISS:         13
LLC PREFETCH  REQUESTED:          0  ISSUED:          0  USEFUL:          0  USELESS:          0
LLC AVERAGE MISS LATENCY: 382.094 cycles
~~~~~~~~~~Reuse Distance Profiler output~~~~~~~~~~
0	68359824	18777152
1	65792448	31095296
2	56836848	35634832
3	60022352	47721872
4	38679728	30699296
5	24102640	16733968
6	16408528	10773616
7	16743376	10327808
8	14398000	7780944
9	11960544	8304256
10	10510400	6086480
11	10254784	4959648
12	8340128	4621536
13	15686176	8185440
14	6626656	4049504
15	6354576	3975920
16	5063408	2988864
17	3712992	2480080
18	2995520	2153392
19	3104688	2292016
20	2515440	1725840
21	2299264	1658016
22	2084288	1334480
23	1733216	1100304
24	1532144	994016
25	1363136	916752
26	1269168	837024
27	1537312	901504
28	1197104	793248
29	1032896	655968
30	923856	638416
31	924352	602480
32	913456	564624
33	714208	492800
34	682464	481456
35	739728	479664
36	612560	438512
37	606992	434112
38	618064	438624
39	580496	412528
40	543904	376896
41	690704	447200
42	477280	337104
43	476592	322544
44	466672	317024
45	448784	322112
46	432928	306864
47	457600	305504
48	414016	273968
49	426064	287296
50	385696	263280
51	369744	244096
52	362352	245888
53	346960	231776
54	331088	220192
55	467968	292496
56	334112	216608
57	309456	210352
58	372432	264608
59	303488	208176
60	277952	189008
61	264928	182000
62	257408	180048
63	249920	176256
64	546448	378288
66	465024	336816
68	571376	407264
70	430832	328080
72	411008	313584
74	407024	314448
76	401664	307824
78	457184	322144
80	477200	311216
82	499840	369792
84	391824	295040
86	389328	278848
88	388048	283184
90	423888	320464
92	387936	280928
94	387008	282720
96	515040	362016
98	403264	294000
100	405520	289584
102	387200	265952
104	385680	258912
106	383680	249216
108	407520	260128
110	519728	329456
112	485296	265600
114	537648	264752
116	538832	251360
118	463200	249664
120	348528	241296
122	332752	258832
124	415488	330064
126	332880	250560
128	675840	466592
132	691824	421920
136	729872	458336
140	533856	400704
144	434992	377776
148	408400	359360
152	424976	374256
156	352176	309296
160	352848	307456
164	381232	336512
168	306064	265392
172	293696	254912
176	303312	258000
180	325936	285328
184	266896	225840
188	261920	221648
192	336608	287136
196	278032	223536
200	273472	210016
204	285392	208960
208	335472	248384
212	290944	197440
216	279696	186240
220	313856	222992
224	273552	185328
228	262352	180528
232	251568	180368
236	261600	193664
240	231696	169056
244	223904	165712
248	245776	187072
252	212960	153520
256	441568	321664
264	472096	348800
272	491616	375392
280	449248	351360
288	445520	369280
296	383408	309136
304	408816	314768
312	401888	283696
320	443632	298400
328	444624	280928
336	431920	269168
344	415600	273632
352	362704	247920
360	341952	251312
368	303792	231072
376	312512	238384
384	321168	236496
392	299728	207456
400	304176	217280
408	277488	196672
416	275904	207664
424	237984	186208
432	229520	190192
440	212848	182880
448	196144	171104
456	203328	179152
464	194432	171152
472	202512	178704
480	191008	169168
488	193280	170960
496	193760	171200
504	177232	154560
512	331488	288432
528	320864	280624
544	312400	272528
560	301680	263088
576	281072	242496
592	263552	225344
608	246064	210384
624	248416	213408
640	241472	208672
656	232400	202304
672	218768	189936
688	211264	183408
704	204032	176256
720	206416	181248
736	228704	204832
752	235808	212112
768	201408	179664
784	189264	166544
800	185280	163648
816	173968	151968
832	165616	145264
848	164624	145264
864	159232	140240
880	157936	140256
896	148128	130928
912	138608	121280
928	145632	128576
944	140160	123840
960	133936	117088
976	133648	117632
992	150560	134032
1008	133584	117824
1024	243536	213296
1056	229232	199280
1088	220560	191376
1120	212016	182624
1152	203936	178592
1184	191568	167888
1216	184256	161824
1248	176832	155888
1280	182816	157408
1312	167616	145776
1344	161376	140608
1376	160896	140432
1408	154672	133984
1440	150496	128208
1472	143824	122800
1504	140096	119008
1536	135552	115408
1568	135120	117424
1600	130832	113296
1632	138880	122560
1664	144656	128528
1696	127152	111648
1728	125904	110176
1760	116208	101696
1792	114144	100592
1824	113136	99248
1856	114224	100496
1888	105872	91472
1920	109104	95584
1952	105664	92192
1984	103712	90352
2016	102432	89520
2048	193440	168720
2112	183792	160928
2176	178928	156128
2240	165136	144048
2304	167600	146640
2368	164656	145408
2432	159616	139632
2496	148992	129216
2560	153056	134224
2624	148704	130400
2688	156432	139056
2752	157904	142112
2816	157728	141744
2880	149376	133216
2944	138400	121376
3008	127792	111808
3072	126256	110832
3136	122432	107584
3200	113952	100448
3264	111264	96720
3328	106192	92880
3392	102016	88608
3456	103568	88192
3520	103296	85424
3584	105792	87040
3648	123376	104816
3712	117120	97632
3776	112752	98544
3840	115552	101248
3904	94544	81488
3968	90480	77024
4032	86480	74496
4096	171984	145440
4224	166704	140640
4352	159600	137104
4480	163728	143008
4608	155248	135248
4736	146032	127376
4864	149504	131120
4992	141344	123456
5120	144960	128080
5248	144240	126592
5376	144256	127232
5504	136128	119920
5632	167504	150400
5760	151744	136208
5888	145744	129968
6016	116944	103360
6144	111776	97488
6272	115904	101376
6400	113808	101152
6528	108960	96816
6656	103536	91712
6784	101984	90656
6912	97392	86304
7040	99472	88080
7168	92192	80288
7296	92112	79600
7424	90080	78448
7552	88016	76560
7680	86960	75648
7808	83728	73232
7936	84272	74064
8064	86560	76848
8192	185536	163200
8448	188240	169392
8704	161968	143680
8960	153056	134384
9216	150624	130816
9472	145344	128192
9728	140768	125376
9984	134528	119552
10240	138320	124176
10496	132496	118368
10752	121408	108128
11008	122688	109296
11264	120480	107792
11520	119296	106128
11776	112416	99680
12032	107776	95664
12288	101424	90688
12544	104528	92464
12800	98832	87728
13056	99568	88208
13312	95488	84752
13568	93280	83584
13824	92512	82528
14080	91152	80512
14336	85328	76416
14592	83952	74944
14848	84560	76944
15104	83488	75088
15360	83168	74768
15616	88320	79712
15872	79056	71440
16128	77520	69744
16384	146128	131040
16896	146704	132368
17408	142448	128496
17920	136432	123728
18432	131248	118240
18944	126336	114000
19456	123632	112320
19968	120640	109840
20480	122672	112336
20992	119552	108976
21504	111344	102448
22016	109024	98464
22528	110400	100992
23040	108080	100112
23552	102336	94880
24064	103856	96016
24576	98352	91200
25088	94224	87904
25600	96176	89792
26112	92240	85600
26624	86736	81120
27136	84800	78912
27648	84672	78496
28160	83936	76640
28672	82768	76944
29184	74816	69600
29696	81408	76448
30208	78576	73472
30720	79184	73952
31232	74176	68800
31744	75424	70800
32256	74864	70384
32768	146096	136720
33792	136320	128368
34816	126864	118992
35840	121936	114800
36864	126416	119904
37888	122912	116064
38912	108624	101584
39936	110272	103616
40960	101344	94752
41984	98752	92688
43008	97600	91760
44032	94544	89008
45056	95504	89952
46080	100256	94288
47104	93280	88080
48128	90336	85168
49152	88992	83776
50176	85440	80288
51200	82032	77520
52224	84128	79344
53248	84160	78992
54272	76592	71792
55296	74528	70272
56320	73392	69248
57344	69424	65376
58368	71120	66432
59392	67504	63136
60416	69872	65120
61440	62320	58080
62464	66336	61456
63488	65248	61424
64512	60672	55760
65536	119408	109888
67584	116560	108416
69632	111568	103120
71680	102224	94912
73728	98464	92032
75776	95392	88816
77824	98592	92512
79872	92224	86592
81920	87856	81760
83968	90256	84896
86016	81296	75136
88064	82128	76336
90112	84320	78304
92160	75792	70992
94208	76000	70992
96256	78432	73600
98304	75504	70048
100352	72128	67008
102400	70128	64848
104448	66864	61152
106496	67040	62064
108544	61664	57136
110592	61920	56352
112640	62960	57904
114688	58144	53424
116736	56656	51552
118784	59584	54640
120832	53472	48864
122880	51472	47168
124928	50096	45104
126976	46720	41744
129024	46752	42064
131072	90848	81536
135168	87696	77296
139264	87056	76736
143360	82704	73056
147456	80784	71952
151552	78000	68512
155648	73568	64688
159744	69872	62192
163840	68944	60272
167936	69184	61248
172032	61280	53104
176128	64624	57488
180224	57504	50432
184320	57392	51248
188416	57808	50896
192512	58144	50144
196608	56816	46976
200704	54400	45856
204800	50736	42624
208896	49776	42144
212992	51664	44000
217088	49616	42304
221184	48016	38240
225280	45744	37104
229376	47664	40640
233472	47136	39376
237568	43056	36320
241664	43504	35888
245760	39744	33456
249856	40096	34192
253952	37360	32192
258048	36816	32224
262144	74832	63040
270336	73088	59856
278528	75472	59360
286720	75168	55824
294912	71120	54144
303104	66672	53632
311296	62800	49984
319488	63520	49808
327680	58320	47312
335872	55888	44480
344064	53472	41920
352256	53584	43072
360448	58128	44016
368640	54432	40768
376832	45296	36672
385024	50800	39584
393216	41744	34704
401408	50512	40112
409600	51312	41840
417792	48432	37680
425984	44592	35344
434176	44576	34528
442368	40848	30816
450560	41680	31568
458752	38016	28240
466944	36576	27312
475136	40704	28944
483328	41344	29136
491520	41072	30016
499712	37984	27408
507904	42208	31024
516096	39376	27680
524288	76832	57376
540672	78912	54480
557056	68432	46928
573440	68640	47472
589824	68016	45568
606208	74784	46176
622592	72352	45280
638976	69024	42864
655360	66784	41488
671744	62512	40032
688128	67696	39808
704512	75728	38960
720896	68048	37696
737280	61904	38224
753664	55632	33280
770048	55312	36560
786432	61872	40608
802816	50208	30000
819200	48896	28880
835584	48864	27664
851968	53600	28624
868352	43616	25296
884736	42624	26848
901120	38736	25632
917504	41936	29136
933888	47536	25344
950272	54304	24272
966656	50656	23760
983040	39488	23984
999424	36768	21568
1015808	36656	19728
1032192	36976	20720
1048576	70080	39200
1081344	66416	35120
1114112	56288	35072
1146880	51232	34784
1179648	54464	35376
1212416	61808	32064
1245184	58368	32928
1277952	52768	35136
1310720	75984	53280
1343488	59376	36176
1376256	52176	34624
1409024	46064	29472
1441792	54992	31808
1474560	42352	30048
1507328	50528	28128
1540096	53552	30768
1572864	47824	27232
1605632	47296	24352
1638400	67376	44208
1671168	36512	23984
1703936	40608	23568
1736704	34784	23600
1769472	77968	67120
1802240	44256	28112
1835008	39824	22688
1867776	40016	26480
1900544	34624	24496
1933312	56528	44336
1966080	31824	20752
1998848	59984	44752
2031616	35968	22480
2064384	37008	23824
2097152	63664	38384
2162688	87024	63728
2228224	59872	41888
2293760	76640	54912
2359296	49616	33120
2424832	51504	32864
2490368	45600	29712
2555904	46320	28720
2621440	44784	25712
2686976	28672	20256
2752512	32352	19744
2818048	33376	19184
2883584	29696	17168
2949120	32192	18368
3014656	28144	15760
3080192	25776	14384
3145728	25984	15648
3211264	24848	15024
3276800	22928	15168
3342336	23712	14416
3407872	20896	11680
3473408	23024	14800
3538944	20624	12976
3604480	15552	9888
3670016	19776	12240
3735552	18640	11552
3801088	19040	12240
3866624	17552	11728
3932160	16864	10992
3997696	17632	11072
4063232	14640	9840
4128768	15552	8816
4194304	28256	17536
4325376	25248	15456
4456448	23664	16064
4587520	22992	13824
4718592	20144	11808
4849664	19088	9984
4980736	17024	10080
5111808	17440	10816
5242880	17408	11440
5373952	17552	11152
5505024	14496	8864
5636096	14272	8304
5767168	14368	9296
5898240	14304	8432
6029312	12928	8672
6160384	11776	7136
6291456	13104	7520
6422528	11504	7744
6553600	8112	4480
6684672	10336	6640
6815744	9904	6768
6946816	9744	5920
7077888	7712	4512
7208960	8208	5040
7340032	5904	3904
7471104	7312	4912
7602176	7776	5328
7733248	10160	7504
7864320	7392	5360
7995392	8688	6448
8126464	6752	4224
8257536	6240	4000
8388608	11104	7072
8650752	14032	9104
8912896	13968	7824
9175040	14640	8784
9437184	11920	6672
9699328	11328	6688
9961472	12928	6352
10223616	12064	5632
10485760	12848	6336
10747904	12096	4320
11010048	11520	3744
11272192	12464	5456
11534336	14672	6800
11796480	14704	5072
12058624	14400	5856
12320768	12960	5504
12582912	10560	3248
12845056	11264	3536
13107200	12608	5056
13369344	10608	3840
13631488	11056	3952
13893632	10784	2400
14155776	13072	3888
14417920	17792	5168
14680064	15568	2720
14942208	16672	5088
15204352	14688	4480
15466496	14496	5904
15728640	11504	4992
15990784	8928	3456
16252928	8016	2864
16515072	8016	2656
16777216	15856	6736
17301504	18480	8528
17825792	20288	9056
18350080	22688	6848
18874368	19312	5184
19398656	19376	7552
19922944	18752	5648
20447232	21728	6656
20971520	23376	4672
21495808	28672	6512
22020096	31808	7664
22544384	36848	7232
23068672	33344	6448
23592960	24464	6496
24117248	24832	6000
24641536	29424	7376
25165824	27488	6208
25690112	19936	5184
26214400	16992	5008
26738688	12544	5712
27262976	14656	5760
27787264	14384	5072
28311552	14272	5680
28835840	9296	3792
29360128	7632	3584
29884416	6352	3824
30408704	5328	3232
30932992	4304	2624
31457280	2816	1712
31981568	3232	1888
32505856	2224	1024
33030144	3392	1920
33554432	4736	1936
34603008	4128	2592
35651584	2896	1664
36700160	2912	1808
37748736	3168	1552
38797312	3088	1696
39845888	4128	1536
40894464	3424	1280
41943040	1616	880
42991616	1920	480
44040192	1888	976
45088768	1936	624
46137344	2048	848
47185920	2112	768
48234496	2608	864
49283072	1360	416
50331648	1872	240
51380224	4336	848
52428800	1184	512
53477376	1952	288
54525952	4336	592
55574528	656	336
56623104	1408	432
57671680	2048	288
58720256	752	416
59768832	2784	576
60817408	1696	768
61865984	816	288
62914560	416	0
63963136	64	0
65011712	16	0
66060288	0	0
67108864	16	0
69206016	16	0
71303168	288	48
73400320	128	0
75497472	1264	0
77594624	224	0
79691776	64	0
81788928	0	0
83886080	0	0
85983232	0	0
88080384	0	0
90177536	0	0
92274688	0	0
94371840	0	0
96468992	0	0
98566144	0	0
100663296	0	0
102760448	0	0
104857600	0	0
106954752	0	0
109051904	0	0
111149056	0	0
113246208	0	0
115343360	16	0
117440512	0	0
119537664	0	0
121634816	16	0
123731968	80	0
125829120	0	0
127926272	0	0
130023424	16	0
132120576	0	0
134217728	0	0
138412032	0	0
142606336	0	0
146800640	0	0
150994944	0	0
155189248	0	0
159383552	0	0
163577856	16	0
167772160	0	0
171966464	16	0
176160768	0	0
180355072	0	0
184549376	0	0
188743680	16	0
192937984	0	0
197132288	32	0
201326592	0	0
205520896	0	0
209715200	0	0
213909504	0	0
218103808	0	0
222298112	0	0
226492416	0	0
230686720	0	0
234881024	0	0
239075328	0	0
243269632	0	0
247463936	0	0
251658240	0	0
255852544	0	0
260046848	0	0
264241152	0	0
268435456	0	0
276824064	0	0
285212672	0	0
293601280	0	0
301989888	0	0
310378496	0	0
318767104	0	0
327155712	0	0
335544320	0	0
343932928	0	0
352321536	0	0
360710144	0	0
369098752	0	0
377487360	0	0
385875968	0	0
394264576	0	0
402653184	0	0
411041792	0	0
419430400	0	0
427819008	0	0
436207616	0	0
444596224	0	0
452984832	0	0
461373440	0	0
469762048	0	0
478150656	0	0
486539264	0	0
494927872	0	0
503316480	0	0
511705088	0	0
520093696	0	0
528482304	0	0
536870912	0	0
553648128	0	0
570425344	0	0
587202560	0	0
603979776	0	0
620756992	0	0
637534208	0	0
654311424	0	0
671088640	0	0
687865856	0	0
704643072	0	0
721420288	0	0
738197504	0	0
754974720	0	0
771751936	0	0
788529152	0	0
805306368	0	0
822083584	0	0
838860800	0	0
855638016	0	0
872415232	0	0
889192448	0	0
905969664	0	0
922746880	0	0
939524096	0	0
956301312	0	0
973078528	0	0
989855744	0	0
1006632960	0	0
1023410176	0	0
1040187392	0	0
1056964608	0	0
1073741824	0	0
1107296256	0	0
1140850688	0	0
1174405120	0	0
1207959552	0	0
1241513984	0	0
1275068416	0	0
1308622848	0	0
1342177280	0	0
1375731712	0	0
1409286144	0	0
1442840576	0	0
1476395008	0	0
1509949440	0	0
1543503872	0	0
1577058304	0	0
1610612736	0	0
1644167168	0	0
1677721600	0	0
1711276032	0	0
1744830464	0	0
1778384896	0	0
1811939328	0	0
1845493760	0	0
1879048192	0	0
1912602624	0	0
1946157056	0	0
1979711488	0	0
2013265920	0	0
2046820352	0	0
2080374784	0	0
2113929216	0	0
2147483648	0	0
2214592512	0	0
2281701376	0	0
2348810240	0	0
2415919104	0	0
2483027968	0	0
2550136832	0	0
2617245696	0	0
2684354560	0	0
2751463424	0	0
2818572288	0	0
2885681152	0	0
2952790016	0	0
3019898880	0	0
3087007744	0	0
3154116608	0	0
3221225472	0	0
3288334336	0	0
3355443200	0	0
3422552064	0	0
3489660928	0	0
3556769792	0	0
3623878656	0	0
3690987520	0	0
3758096384	0	0
3825205248	0	0
3892314112	0	0
3959422976	0	0
4026531840	0	0
4093640704	0	0
4160749568	0	0
4227858432	0	0
~~~~~~~~~~Reuse Distance Profiler output end~~~~~~~~~~

DRAM Statistics
 CHANNEL 0
 RQ ROW_BUFFER_HIT:     225166  ROW_BUFFER_MISS:    1125651
 DBUS AVG_CONGESTED_CYCLE:    3.97211
 WQ ROW_BUFFER_HIT:      85893  ROW_BUFFER_MISS:     825158  FULL:         41


CPU 0 Branch Prediction Accuracy: 92.0878% MPKI: 12.2743 Average ROB Occupancy at Mispredict: 33.9961
Branch type MPKI
BRANCH_DIRECT_JUMP: 0
BRANCH_INDIRECT: 0
BRANCH_CONDITIONAL: 12.2743
BRANCH_DIRECT_CALL: 0
BRANCH_INDIRECT_CALL: 0
BRANCH_RETURN: 0

