
*** ChampSim Multicore Out-of-Order Simulator ***

Warmup Instructions: 500000000
Simulation Instructions: 1500000000
Number of CPUs: 1
Off-chip DRAM Size: 4 GiB Channels: 1 Width: 64-bit Data Rate: 3200 MT/s

VirtualMemory physical capacity: 8588881920 num_ppages: 2096895
VirtualMemory page size: 4096 log2_page_size: 12

CPU 0 runs traces/403.gcc-48B.champsimtrace.xz
CPU 0 Bimodal branch predictor
Basic BTB sets: 1024 ways: 8 indirect buffer size: 4096 RAS size: 64
Initializing LRU.
Initializing LRU.
Initializing LRU.
Initializing LRU.
Initializing rdLRU.
Initializing LRU.
Initializing LRU.
Heartbeat CPU 0 instructions: 10000003 cycles: 2500146 heartbeat IPC: 3.99977 cumulative IPC: 3.99977 (Simulation time: 0 hr 0 min 30 sec) 
Heartbeat CPU 0 instructions: 20000003 cycles: 5000177 heartbeat IPC: 3.99995 cumulative IPC: 3.99986 (Simulation time: 0 hr 1 min 1 sec) 
Heartbeat CPU 0 instructions: 30000003 cycles: 7500258 heartbeat IPC: 3.99987 cumulative IPC: 3.99986 (Simulation time: 0 hr 1 min 31 sec) 
Heartbeat CPU 0 instructions: 40000003 cycles: 10000289 heartbeat IPC: 3.99995 cumulative IPC: 3.99988 (Simulation time: 0 hr 2 min 2 sec) 
Heartbeat CPU 0 instructions: 50000000 cycles: 12500367 heartbeat IPC: 3.99987 cumulative IPC: 3.99988 (Simulation time: 0 hr 2 min 32 sec) 
Heartbeat CPU 0 instructions: 60000000 cycles: 15000651 heartbeat IPC: 3.99955 cumulative IPC: 3.99983 (Simulation time: 0 hr 3 min 3 sec) 
Heartbeat CPU 0 instructions: 70000001 cycles: 17500690 heartbeat IPC: 3.99994 cumulative IPC: 3.99984 (Simulation time: 0 hr 3 min 33 sec) 
Heartbeat CPU 0 instructions: 80000002 cycles: 20000771 heartbeat IPC: 3.99987 cumulative IPC: 3.99985 (Simulation time: 0 hr 4 min 3 sec) 
Heartbeat CPU 0 instructions: 90000001 cycles: 22500800 heartbeat IPC: 3.99995 cumulative IPC: 3.99986 (Simulation time: 0 hr 4 min 34 sec) 
Heartbeat CPU 0 instructions: 100000002 cycles: 25000955 heartbeat IPC: 3.99975 cumulative IPC: 3.99985 (Simulation time: 0 hr 5 min 4 sec) 
Heartbeat CPU 0 instructions: 110000002 cycles: 27501177 heartbeat IPC: 3.99964 cumulative IPC: 3.99983 (Simulation time: 0 hr 5 min 35 sec) 
Heartbeat CPU 0 instructions: 120000000 cycles: 30001216 heartbeat IPC: 3.99994 cumulative IPC: 3.99984 (Simulation time: 0 hr 6 min 5 sec) 
Heartbeat CPU 0 instructions: 130000002 cycles: 32501312 heartbeat IPC: 3.99985 cumulative IPC: 3.99984 (Simulation time: 0 hr 6 min 36 sec) 
Heartbeat CPU 0 instructions: 140000001 cycles: 35001352 heartbeat IPC: 3.99994 cumulative IPC: 3.99985 (Simulation time: 0 hr 7 min 6 sec) 
Heartbeat CPU 0 instructions: 150000003 cycles: 37501438 heartbeat IPC: 3.99986 cumulative IPC: 3.99985 (Simulation time: 0 hr 7 min 36 sec) 
Heartbeat CPU 0 instructions: 160000000 cycles: 40001468 heartbeat IPC: 3.99995 cumulative IPC: 3.99985 (Simulation time: 0 hr 8 min 7 sec) 
Heartbeat CPU 0 instructions: 170000002 cycles: 42501562 heartbeat IPC: 3.99985 cumulative IPC: 3.99985 (Simulation time: 0 hr 8 min 37 sec) 
Heartbeat CPU 0 instructions: 180000002 cycles: 45001583 heartbeat IPC: 3.99997 cumulative IPC: 3.99986 (Simulation time: 0 hr 9 min 8 sec) 
Heartbeat CPU 0 instructions: 190000003 cycles: 47501900 heartbeat IPC: 3.99949 cumulative IPC: 3.99984 (Simulation time: 0 hr 9 min 38 sec) 
Heartbeat CPU 0 instructions: 200000002 cycles: 50002065 heartbeat IPC: 3.99974 cumulative IPC: 3.99983 (Simulation time: 0 hr 10 min 9 sec) 
Heartbeat CPU 0 instructions: 210000003 cycles: 52502102 heartbeat IPC: 3.99994 cumulative IPC: 3.99984 (Simulation time: 0 hr 10 min 39 sec) 
Heartbeat CPU 0 instructions: 220000001 cycles: 55002196 heartbeat IPC: 3.99985 cumulative IPC: 3.99984 (Simulation time: 0 hr 11 min 9 sec) 
Heartbeat CPU 0 instructions: 230000001 cycles: 57502221 heartbeat IPC: 3.99996 cumulative IPC: 3.99985 (Simulation time: 0 hr 11 min 40 sec) 
Heartbeat CPU 0 instructions: 240000000 cycles: 60002551 heartbeat IPC: 3.99947 cumulative IPC: 3.99983 (Simulation time: 0 hr 12 min 10 sec) 
Heartbeat CPU 0 instructions: 250000003 cycles: 62502653 heartbeat IPC: 3.99984 cumulative IPC: 3.99983 (Simulation time: 0 hr 12 min 41 sec) 
Heartbeat CPU 0 instructions: 260000001 cycles: 65002692 heartbeat IPC: 3.99994 cumulative IPC: 3.99983 (Simulation time: 0 hr 13 min 11 sec) 
Heartbeat CPU 0 instructions: 270000003 cycles: 67502794 heartbeat IPC: 3.99984 cumulative IPC: 3.99983 (Simulation time: 0 hr 13 min 41 sec) 
Heartbeat CPU 0 instructions: 280000000 cycles: 70002820 heartbeat IPC: 3.99996 cumulative IPC: 3.99984 (Simulation time: 0 hr 14 min 12 sec) 
Heartbeat CPU 0 instructions: 290000002 cycles: 72503163 heartbeat IPC: 3.99945 cumulative IPC: 3.99983 (Simulation time: 0 hr 14 min 43 sec) 
Heartbeat CPU 0 instructions: 300000002 cycles: 75003269 heartbeat IPC: 3.99983 cumulative IPC: 3.99983 (Simulation time: 0 hr 15 min 13 sec) 
Heartbeat CPU 0 instructions: 310000002 cycles: 77503302 heartbeat IPC: 3.99995 cumulative IPC: 3.99983 (Simulation time: 0 hr 15 min 43 sec) 
Heartbeat CPU 0 instructions: 320000000 cycles: 80003424 heartbeat IPC: 3.9998 cumulative IPC: 3.99983 (Simulation time: 0 hr 16 min 14 sec) 
Heartbeat CPU 0 instructions: 330000002 cycles: 82503474 heartbeat IPC: 3.99992 cumulative IPC: 3.99983 (Simulation time: 0 hr 16 min 44 sec) 
Heartbeat CPU 0 instructions: 340000001 cycles: 85003868 heartbeat IPC: 3.99937 cumulative IPC: 3.99982 (Simulation time: 0 hr 17 min 15 sec) 
Heartbeat CPU 0 instructions: 350000003 cycles: 87504057 heartbeat IPC: 3.9997 cumulative IPC: 3.99981 (Simulation time: 0 hr 17 min 46 sec) 
Heartbeat CPU 0 instructions: 360000002 cycles: 90004224 heartbeat IPC: 3.99973 cumulative IPC: 3.99981 (Simulation time: 0 hr 18 min 16 sec) 
Heartbeat CPU 0 instructions: 370000000 cycles: 92504462 heartbeat IPC: 3.99962 cumulative IPC: 3.99981 (Simulation time: 0 hr 18 min 47 sec) 
Heartbeat CPU 0 instructions: 380000000 cycles: 95004746 heartbeat IPC: 3.99955 cumulative IPC: 3.9998 (Simulation time: 0 hr 19 min 17 sec) 
Heartbeat CPU 0 instructions: 390000000 cycles: 97505155 heartbeat IPC: 3.99935 cumulative IPC: 3.99979 (Simulation time: 0 hr 19 min 48 sec) 
Heartbeat CPU 0 instructions: 400000000 cycles: 100005332 heartbeat IPC: 3.99972 cumulative IPC: 3.99979 (Simulation time: 0 hr 20 min 19 sec) 
Heartbeat CPU 0 instructions: 410000003 cycles: 102505642 heartbeat IPC: 3.99951 cumulative IPC: 3.99978 (Simulation time: 0 hr 20 min 50 sec) 
Heartbeat CPU 0 instructions: 420000002 cycles: 105005789 heartbeat IPC: 3.99976 cumulative IPC: 3.99978 (Simulation time: 0 hr 21 min 20 sec) 
Heartbeat CPU 0 instructions: 430000003 cycles: 107506075 heartbeat IPC: 3.99954 cumulative IPC: 3.99977 (Simulation time: 0 hr 21 min 50 sec) 
Heartbeat CPU 0 instructions: 440000001 cycles: 110006310 heartbeat IPC: 3.99962 cumulative IPC: 3.99977 (Simulation time: 0 hr 22 min 21 sec) 
Heartbeat CPU 0 instructions: 450000003 cycles: 112506426 heartbeat IPC: 3.99982 cumulative IPC: 3.99977 (Simulation time: 0 hr 22 min 52 sec) 
Heartbeat CPU 0 instructions: 460000000 cycles: 115006570 heartbeat IPC: 3.99977 cumulative IPC: 3.99977 (Simulation time: 0 hr 23 min 22 sec) 
Heartbeat CPU 0 instructions: 470000002 cycles: 117507490 heartbeat IPC: 3.99853 cumulative IPC: 3.99975 (Simulation time: 0 hr 23 min 53 sec) 
Heartbeat CPU 0 instructions: 480000000 cycles: 120043515 heartbeat IPC: 3.94318 cumulative IPC: 3.99855 (Simulation time: 0 hr 24 min 26 sec) 
Heartbeat CPU 0 instructions: 490000001 cycles: 122549704 heartbeat IPC: 3.99012 cumulative IPC: 3.99838 (Simulation time: 0 hr 24 min 59 sec) 
Heartbeat CPU 0 instructions: 500000001 cycles: 125056671 heartbeat IPC: 3.98888 cumulative IPC: 3.99819 (Simulation time: 0 hr 25 min 32 sec) 

Warmup complete CPU 0 instructions: 500000001 cycles: 125056671 (Simulation time: 0 hr 25 min 32 sec) 

Heartbeat CPU 0 instructions: 510000003 cycles: 156971814 heartbeat IPC: 0.313331 cumulative IPC: 0.313331 (Simulation time: 0 hr 26 min 50 sec) 
Heartbeat CPU 0 instructions: 520000002 cycles: 193564288 heartbeat IPC: 0.27328 cumulative IPC: 0.291938 (Simulation time: 0 hr 28 min 20 sec) 
Heartbeat CPU 0 instructions: 530000001 cycles: 201889745 heartbeat IPC: 1.20114 cumulative IPC: 0.390457 (Simulation time: 0 hr 29 min 24 sec) 
Heartbeat CPU 0 instructions: 540000001 cycles: 208370960 heartbeat IPC: 1.54292 cumulative IPC: 0.48011 (Simulation time: 0 hr 30 min 21 sec) 
Heartbeat CPU 0 instructions: 550000001 cycles: 214869773 heartbeat IPC: 1.53874 cumulative IPC: 0.556712 (Simulation time: 0 hr 31 min 17 sec) 
Heartbeat CPU 0 instructions: 560000003 cycles: 221387793 heartbeat IPC: 1.53421 cumulative IPC: 0.622852 (Simulation time: 0 hr 32 min 13 sec) 
Heartbeat CPU 0 instructions: 570000000 cycles: 227863865 heartbeat IPC: 1.54415 cumulative IPC: 0.680886 (Simulation time: 0 hr 33 min 9 sec) 
Heartbeat CPU 0 instructions: 580000003 cycles: 234326365 heartbeat IPC: 1.54739 cumulative IPC: 0.732134 (Simulation time: 0 hr 34 min 6 sec) 
Heartbeat CPU 0 instructions: 590000003 cycles: 240840899 heartbeat IPC: 1.53503 cumulative IPC: 0.777308 (Simulation time: 0 hr 35 min 2 sec) 
Heartbeat CPU 0 instructions: 600000003 cycles: 247351327 heartbeat IPC: 1.536 cumulative IPC: 0.817697 (Simulation time: 0 hr 35 min 58 sec) 
Heartbeat CPU 0 instructions: 610000000 cycles: 253851116 heartbeat IPC: 1.53851 cumulative IPC: 0.854074 (Simulation time: 0 hr 36 min 55 sec) 
Heartbeat CPU 0 instructions: 620000004 cycles: 260403486 heartbeat IPC: 1.52617 cumulative IPC: 0.886611 (Simulation time: 0 hr 37 min 51 sec) 
Heartbeat CPU 0 instructions: 630000000 cycles: 266963719 heartbeat IPC: 1.52434 cumulative IPC: 0.916093 (Simulation time: 0 hr 38 min 47 sec) 
Heartbeat CPU 0 instructions: 640000000 cycles: 273576349 heartbeat IPC: 1.51226 cumulative IPC: 0.942636 (Simulation time: 0 hr 39 min 43 sec) 
Heartbeat CPU 0 instructions: 650000003 cycles: 280117448 heartbeat IPC: 1.5288 cumulative IPC: 0.967363 (Simulation time: 0 hr 40 min 39 sec) 
Heartbeat CPU 0 instructions: 660000002 cycles: 286669578 heartbeat IPC: 1.52622 cumulative IPC: 0.99002 (Simulation time: 0 hr 41 min 35 sec) 
Heartbeat CPU 0 instructions: 670000002 cycles: 293213014 heartbeat IPC: 1.52825 cumulative IPC: 1.01096 (Simulation time: 0 hr 42 min 32 sec) 
Heartbeat CPU 0 instructions: 680000004 cycles: 299770615 heartbeat IPC: 1.52495 cumulative IPC: 1.03026 (Simulation time: 0 hr 43 min 29 sec) 
Heartbeat CPU 0 instructions: 690000003 cycles: 306328955 heartbeat IPC: 1.52478 cumulative IPC: 1.04815 (Simulation time: 0 hr 44 min 25 sec) 
Heartbeat CPU 0 instructions: 700000000 cycles: 312886243 heartbeat IPC: 1.52502 cumulative IPC: 1.0648 (Simulation time: 0 hr 45 min 22 sec) 
Heartbeat CPU 0 instructions: 710000003 cycles: 319453081 heartbeat IPC: 1.5228 cumulative IPC: 1.08027 (Simulation time: 0 hr 46 min 18 sec) 
Heartbeat CPU 0 instructions: 720000003 cycles: 326014196 heartbeat IPC: 1.52413 cumulative IPC: 1.09476 (Simulation time: 0 hr 47 min 14 sec) 
Heartbeat CPU 0 instructions: 730000001 cycles: 332580376 heartbeat IPC: 1.52296 cumulative IPC: 1.10831 (Simulation time: 0 hr 48 min 11 sec) 
Heartbeat CPU 0 instructions: 740000004 cycles: 339159631 heartbeat IPC: 1.51993 cumulative IPC: 1.12096 (Simulation time: 0 hr 49 min 7 sec) 
Heartbeat CPU 0 instructions: 750000000 cycles: 345732275 heartbeat IPC: 1.52146 cumulative IPC: 1.13288 (Simulation time: 0 hr 50 min 4 sec) 
Heartbeat CPU 0 instructions: 760000004 cycles: 352309905 heartbeat IPC: 1.52031 cumulative IPC: 1.1441 (Simulation time: 0 hr 51 min 1 sec) 
Heartbeat CPU 0 instructions: 770000000 cycles: 358899160 heartbeat IPC: 1.51762 cumulative IPC: 1.15462 (Simulation time: 0 hr 51 min 57 sec) 
Heartbeat CPU 0 instructions: 780000002 cycles: 365577057 heartbeat IPC: 1.49748 cumulative IPC: 1.16414 (Simulation time: 0 hr 52 min 54 sec) 
Heartbeat CPU 0 instructions: 790000001 cycles: 372101552 heartbeat IPC: 1.53269 cumulative IPC: 1.17388 (Simulation time: 0 hr 53 min 50 sec) 
Heartbeat CPU 0 instructions: 800000001 cycles: 378632488 heartbeat IPC: 1.53117 cumulative IPC: 1.18308 (Simulation time: 0 hr 54 min 46 sec) 
Heartbeat CPU 0 instructions: 810000003 cycles: 385169143 heartbeat IPC: 1.52983 cumulative IPC: 1.19179 (Simulation time: 0 hr 55 min 42 sec) 
Heartbeat CPU 0 instructions: 820000000 cycles: 391711633 heartbeat IPC: 1.52847 cumulative IPC: 1.20005 (Simulation time: 0 hr 56 min 38 sec) 
Heartbeat CPU 0 instructions: 830000001 cycles: 398255014 heartbeat IPC: 1.52826 cumulative IPC: 1.20791 (Simulation time: 0 hr 57 min 34 sec) 
Heartbeat CPU 0 instructions: 840000003 cycles: 404793856 heartbeat IPC: 1.52932 cumulative IPC: 1.21543 (Simulation time: 0 hr 58 min 30 sec) 
Heartbeat CPU 0 instructions: 850000004 cycles: 411335169 heartbeat IPC: 1.52875 cumulative IPC: 1.22259 (Simulation time: 0 hr 59 min 26 sec) 
Heartbeat CPU 0 instructions: 860000002 cycles: 417879959 heartbeat IPC: 1.52793 cumulative IPC: 1.22941 (Simulation time: 1 hr 0 min 22 sec) 
Heartbeat CPU 0 instructions: 870000004 cycles: 424422442 heartbeat IPC: 1.52847 cumulative IPC: 1.23595 (Simulation time: 1 hr 1 min 18 sec) 
Heartbeat CPU 0 instructions: 880000000 cycles: 430965075 heartbeat IPC: 1.52844 cumulative IPC: 1.2422 (Simulation time: 1 hr 2 min 14 sec) 
Heartbeat CPU 0 instructions: 890000002 cycles: 437511985 heartbeat IPC: 1.52744 cumulative IPC: 1.24818 (Simulation time: 1 hr 3 min 10 sec) 
Heartbeat CPU 0 instructions: 900000000 cycles: 444048121 heartbeat IPC: 1.52996 cumulative IPC: 1.25395 (Simulation time: 1 hr 4 min 5 sec) 
Heartbeat CPU 0 instructions: 910000000 cycles: 450602449 heartbeat IPC: 1.52571 cumulative IPC: 1.25942 (Simulation time: 1 hr 5 min 1 sec) 
Heartbeat CPU 0 instructions: 920000002 cycles: 457189083 heartbeat IPC: 1.51823 cumulative IPC: 1.26456 (Simulation time: 1 hr 5 min 57 sec) 
Heartbeat CPU 0 instructions: 930000002 cycles: 463764198 heartbeat IPC: 1.52089 cumulative IPC: 1.26953 (Simulation time: 1 hr 6 min 53 sec) 
Heartbeat CPU 0 instructions: 940000000 cycles: 470337157 heartbeat IPC: 1.52138 cumulative IPC: 1.27433 (Simulation time: 1 hr 7 min 49 sec) 
Heartbeat CPU 0 instructions: 950000000 cycles: 476917923 heartbeat IPC: 1.51958 cumulative IPC: 1.27891 (Simulation time: 1 hr 8 min 45 sec) 
Heartbeat CPU 0 instructions: 960000003 cycles: 483495624 heartbeat IPC: 1.52029 cumulative IPC: 1.28334 (Simulation time: 1 hr 9 min 41 sec) 
Heartbeat CPU 0 instructions: 970000002 cycles: 490084266 heartbeat IPC: 1.51776 cumulative IPC: 1.28757 (Simulation time: 1 hr 10 min 37 sec) 
Heartbeat CPU 0 instructions: 980000001 cycles: 496664115 heartbeat IPC: 1.51979 cumulative IPC: 1.29169 (Simulation time: 1 hr 11 min 33 sec) 
Heartbeat CPU 0 instructions: 990000001 cycles: 503224171 heartbeat IPC: 1.52438 cumulative IPC: 1.29572 (Simulation time: 1 hr 12 min 29 sec) 
Heartbeat CPU 0 instructions: 1000000003 cycles: 509826374 heartbeat IPC: 1.51465 cumulative IPC: 1.29948 (Simulation time: 1 hr 13 min 25 sec) 
Heartbeat CPU 0 instructions: 1010000003 cycles: 516409835 heartbeat IPC: 1.51896 cumulative IPC: 1.30317 (Simulation time: 1 hr 14 min 21 sec) 
Heartbeat CPU 0 instructions: 1020000002 cycles: 523012974 heartbeat IPC: 1.51443 cumulative IPC: 1.30668 (Simulation time: 1 hr 15 min 17 sec) 
Heartbeat CPU 0 instructions: 1030000001 cycles: 529612788 heartbeat IPC: 1.51519 cumulative IPC: 1.31008 (Simulation time: 1 hr 16 min 13 sec) 
Heartbeat CPU 0 instructions: 1040000002 cycles: 536221342 heartbeat IPC: 1.51319 cumulative IPC: 1.31334 (Simulation time: 1 hr 17 min 9 sec) 
Heartbeat CPU 0 instructions: 1050000004 cycles: 542812218 heartbeat IPC: 1.51725 cumulative IPC: 1.31656 (Simulation time: 1 hr 18 min 6 sec) 
Heartbeat CPU 0 instructions: 1060000000 cycles: 549353208 heartbeat IPC: 1.52882 cumulative IPC: 1.31983 (Simulation time: 1 hr 19 min 3 sec) 
Heartbeat CPU 0 instructions: 1070000002 cycles: 555944544 heartbeat IPC: 1.51714 cumulative IPC: 1.32285 (Simulation time: 1 hr 19 min 59 sec) 
Heartbeat CPU 0 instructions: 1080000003 cycles: 562573748 heartbeat IPC: 1.50848 cumulative IPC: 1.32566 (Simulation time: 1 hr 20 min 55 sec) 
Heartbeat CPU 0 instructions: 1090000003 cycles: 569169366 heartbeat IPC: 1.51616 cumulative IPC: 1.32849 (Simulation time: 1 hr 21 min 51 sec) 
Heartbeat CPU 0 instructions: 1100000000 cycles: 575767456 heartbeat IPC: 1.51559 cumulative IPC: 1.33123 (Simulation time: 1 hr 22 min 48 sec) 
Heartbeat CPU 0 instructions: 1110000003 cycles: 582397953 heartbeat IPC: 1.50818 cumulative IPC: 1.3338 (Simulation time: 1 hr 23 min 44 sec) 
Heartbeat CPU 0 instructions: 1120000002 cycles: 588988106 heartbeat IPC: 1.51742 cumulative IPC: 1.3364 (Simulation time: 1 hr 24 min 40 sec) 
Heartbeat CPU 0 instructions: 1130000002 cycles: 595602684 heartbeat IPC: 1.51181 cumulative IPC: 1.33887 (Simulation time: 1 hr 25 min 36 sec) 
Heartbeat CPU 0 instructions: 1140000002 cycles: 602200190 heartbeat IPC: 1.51572 cumulative IPC: 1.34132 (Simulation time: 1 hr 26 min 32 sec) 
Heartbeat CPU 0 instructions: 1150000004 cycles: 608831764 heartbeat IPC: 1.50794 cumulative IPC: 1.3436 (Simulation time: 1 hr 27 min 28 sec) 
Heartbeat CPU 0 instructions: 1160000004 cycles: 615421473 heartbeat IPC: 1.51752 cumulative IPC: 1.34594 (Simulation time: 1 hr 28 min 25 sec) 
Heartbeat CPU 0 instructions: 1170000000 cycles: 622038205 heartbeat IPC: 1.51132 cumulative IPC: 1.34814 (Simulation time: 1 hr 29 min 21 sec) 
Heartbeat CPU 0 instructions: 1180000001 cycles: 628667438 heartbeat IPC: 1.50847 cumulative IPC: 1.35025 (Simulation time: 1 hr 30 min 17 sec) 
Heartbeat CPU 0 instructions: 1190000000 cycles: 635284749 heartbeat IPC: 1.51119 cumulative IPC: 1.35234 (Simulation time: 1 hr 31 min 13 sec) 
Heartbeat CPU 0 instructions: 1200000001 cycles: 641916929 heartbeat IPC: 1.5078 cumulative IPC: 1.35433 (Simulation time: 1 hr 32 min 9 sec) 
Heartbeat CPU 0 instructions: 1210000004 cycles: 648539299 heartbeat IPC: 1.51003 cumulative IPC: 1.3563 (Simulation time: 1 hr 33 min 5 sec) 
Heartbeat CPU 0 instructions: 1220000004 cycles: 655183039 heartbeat IPC: 1.50518 cumulative IPC: 1.35817 (Simulation time: 1 hr 34 min 1 sec) 
Heartbeat CPU 0 instructions: 1230000004 cycles: 661813504 heartbeat IPC: 1.50819 cumulative IPC: 1.36002 (Simulation time: 1 hr 34 min 57 sec) 
Heartbeat CPU 0 instructions: 1240000004 cycles: 668450536 heartbeat IPC: 1.5067 cumulative IPC: 1.36181 (Simulation time: 1 hr 35 min 54 sec) 
Heartbeat CPU 0 instructions: 1250000004 cycles: 675081839 heartbeat IPC: 1.508 cumulative IPC: 1.36357 (Simulation time: 1 hr 36 min 50 sec) 
Heartbeat CPU 0 instructions: 1260000000 cycles: 681705684 heartbeat IPC: 1.5097 cumulative IPC: 1.36531 (Simulation time: 1 hr 37 min 46 sec) 
Heartbeat CPU 0 instructions: 1270000003 cycles: 688330857 heartbeat IPC: 1.5094 cumulative IPC: 1.36701 (Simulation time: 1 hr 38 min 42 sec) 
Heartbeat CPU 0 instructions: 1280000002 cycles: 694980739 heartbeat IPC: 1.50379 cumulative IPC: 1.3686 (Simulation time: 1 hr 39 min 39 sec) 
Heartbeat CPU 0 instructions: 1290000000 cycles: 701639177 heartbeat IPC: 1.50185 cumulative IPC: 1.37014 (Simulation time: 1 hr 40 min 35 sec) 
Heartbeat CPU 0 instructions: 1300000001 cycles: 708276485 heartbeat IPC: 1.50664 cumulative IPC: 1.3717 (Simulation time: 1 hr 41 min 32 sec) 
Heartbeat CPU 0 instructions: 1310000000 cycles: 714908745 heartbeat IPC: 1.50778 cumulative IPC: 1.37323 (Simulation time: 1 hr 42 min 28 sec) 
Heartbeat CPU 0 instructions: 1320000004 cycles: 721532713 heartbeat IPC: 1.50967 cumulative IPC: 1.37474 (Simulation time: 1 hr 43 min 24 sec) 
Heartbeat CPU 0 instructions: 1330000004 cycles: 728159227 heartbeat IPC: 1.50909 cumulative IPC: 1.37622 (Simulation time: 1 hr 44 min 20 sec) 
Heartbeat CPU 0 instructions: 1340000002 cycles: 734840721 heartbeat IPC: 1.49667 cumulative IPC: 1.37754 (Simulation time: 1 hr 45 min 16 sec) 
Heartbeat CPU 0 instructions: 1350000000 cycles: 741484974 heartbeat IPC: 1.50506 cumulative IPC: 1.37891 (Simulation time: 1 hr 46 min 12 sec) 
Heartbeat CPU 0 instructions: 1360000000 cycles: 748124938 heartbeat IPC: 1.50603 cumulative IPC: 1.38027 (Simulation time: 1 hr 47 min 9 sec) 
Heartbeat CPU 0 instructions: 1370000003 cycles: 754826283 heartbeat IPC: 1.49224 cumulative IPC: 1.38146 (Simulation time: 1 hr 48 min 5 sec) 
Heartbeat CPU 0 instructions: 1380000000 cycles: 761488636 heartbeat IPC: 1.50097 cumulative IPC: 1.38271 (Simulation time: 1 hr 49 min 1 sec) 
Heartbeat CPU 0 instructions: 1390000001 cycles: 768168892 heartbeat IPC: 1.49695 cumulative IPC: 1.3839 (Simulation time: 1 hr 49 min 57 sec) 
Heartbeat CPU 0 instructions: 1400000003 cycles: 774860003 heartbeat IPC: 1.49452 cumulative IPC: 1.38503 (Simulation time: 1 hr 50 min 54 sec) 
Heartbeat CPU 0 instructions: 1410000001 cycles: 781527599 heartbeat IPC: 1.49979 cumulative IPC: 1.3862 (Simulation time: 1 hr 51 min 51 sec) 
Heartbeat CPU 0 instructions: 1420000000 cycles: 788232221 heartbeat IPC: 1.49151 cumulative IPC: 1.38726 (Simulation time: 1 hr 52 min 48 sec) 
Heartbeat CPU 0 instructions: 1430000000 cycles: 795880260 heartbeat IPC: 1.30752 cumulative IPC: 1.38636 (Simulation time: 1 hr 53 min 48 sec) 
Heartbeat CPU 0 instructions: 1440000001 cycles: 802461612 heartbeat IPC: 1.51944 cumulative IPC: 1.38765 (Simulation time: 1 hr 54 min 45 sec) 
Heartbeat CPU 0 instructions: 1450000001 cycles: 809032613 heartbeat IPC: 1.52184 cumulative IPC: 1.38894 (Simulation time: 1 hr 55 min 41 sec) 
Heartbeat CPU 0 instructions: 1460000001 cycles: 815609497 heartbeat IPC: 1.52048 cumulative IPC: 1.39019 (Simulation time: 1 hr 56 min 37 sec) 
Heartbeat CPU 0 instructions: 1470000004 cycles: 822189959 heartbeat IPC: 1.51965 cumulative IPC: 1.39141 (Simulation time: 1 hr 57 min 33 sec) 
Heartbeat CPU 0 instructions: 1480000003 cycles: 828783171 heartbeat IPC: 1.51671 cumulative IPC: 1.39259 (Simulation time: 1 hr 58 min 29 sec) 
Heartbeat CPU 0 instructions: 1490000003 cycles: 835362752 heartbeat IPC: 1.51985 cumulative IPC: 1.39377 (Simulation time: 1 hr 59 min 26 sec) 
Heartbeat CPU 0 instructions: 1500000000 cycles: 841958994 heartbeat IPC: 1.51601 cumulative IPC: 1.39489 (Simulation time: 2 hr 0 min 22 sec) 
Heartbeat CPU 0 instructions: 1510000001 cycles: 848568656 heartbeat IPC: 1.51294 cumulative IPC: 1.39597 (Simulation time: 2 hr 1 min 19 sec) 
Heartbeat CPU 0 instructions: 1520000000 cycles: 855164888 heartbeat IPC: 1.51602 cumulative IPC: 1.39705 (Simulation time: 2 hr 2 min 15 sec) 
Heartbeat CPU 0 instructions: 1530000002 cycles: 861782778 heartbeat IPC: 1.51106 cumulative IPC: 1.39808 (Simulation time: 2 hr 3 min 12 sec) 
Heartbeat CPU 0 instructions: 1540000004 cycles: 868406575 heartbeat IPC: 1.50971 cumulative IPC: 1.39907 (Simulation time: 2 hr 4 min 8 sec) 
Heartbeat CPU 0 instructions: 1550000001 cycles: 875019697 heartbeat IPC: 1.51214 cumulative IPC: 1.40007 (Simulation time: 2 hr 5 min 6 sec) 
Heartbeat CPU 0 instructions: 1560000004 cycles: 881647535 heartbeat IPC: 1.50879 cumulative IPC: 1.40102 (Simulation time: 2 hr 6 min 2 sec) 
Heartbeat CPU 0 instructions: 1570000001 cycles: 888295643 heartbeat IPC: 1.50419 cumulative IPC: 1.40192 (Simulation time: 2 hr 6 min 59 sec) 
Heartbeat CPU 0 instructions: 1580000000 cycles: 894906512 heartbeat IPC: 1.51266 cumulative IPC: 1.40287 (Simulation time: 2 hr 7 min 56 sec) 
Heartbeat CPU 0 instructions: 1590000003 cycles: 901542546 heartbeat IPC: 1.50692 cumulative IPC: 1.40376 (Simulation time: 2 hr 8 min 52 sec) 
Heartbeat CPU 0 instructions: 1600000002 cycles: 908198746 heartbeat IPC: 1.50236 cumulative IPC: 1.4046 (Simulation time: 2 hr 9 min 48 sec) 
Heartbeat CPU 0 instructions: 1610000003 cycles: 914817319 heartbeat IPC: 1.5109 cumulative IPC: 1.40549 (Simulation time: 2 hr 10 min 45 sec) 
Heartbeat CPU 0 instructions: 1620000001 cycles: 921455607 heartbeat IPC: 1.50641 cumulative IPC: 1.40633 (Simulation time: 2 hr 11 min 41 sec) 
Heartbeat CPU 0 instructions: 1630000004 cycles: 928098321 heartbeat IPC: 1.50541 cumulative IPC: 1.40715 (Simulation time: 2 hr 12 min 38 sec) 
Heartbeat CPU 0 instructions: 1640000002 cycles: 934763183 heartbeat IPC: 1.50041 cumulative IPC: 1.40792 (Simulation time: 2 hr 13 min 35 sec) 
Heartbeat CPU 0 instructions: 1650000000 cycles: 941410755 heartbeat IPC: 1.50431 cumulative IPC: 1.4087 (Simulation time: 2 hr 14 min 31 sec) 
Heartbeat CPU 0 instructions: 1660000003 cycles: 948074680 heartbeat IPC: 1.50062 cumulative IPC: 1.40945 (Simulation time: 2 hr 15 min 28 sec) 
Heartbeat CPU 0 instructions: 1670000002 cycles: 954714203 heartbeat IPC: 1.50613 cumulative IPC: 1.41022 (Simulation time: 2 hr 16 min 24 sec) 
Heartbeat CPU 0 instructions: 1680000002 cycles: 961357029 heartbeat IPC: 1.50538 cumulative IPC: 1.41098 (Simulation time: 2 hr 17 min 21 sec) 
Heartbeat CPU 0 instructions: 1690000001 cycles: 968018736 heartbeat IPC: 1.50112 cumulative IPC: 1.41169 (Simulation time: 2 hr 18 min 17 sec) 
Heartbeat CPU 0 instructions: 1700000001 cycles: 974683007 heartbeat IPC: 1.50054 cumulative IPC: 1.41239 (Simulation time: 2 hr 19 min 14 sec) 
Heartbeat CPU 0 instructions: 1710000004 cycles: 981320869 heartbeat IPC: 1.50651 cumulative IPC: 1.41312 (Simulation time: 2 hr 20 min 10 sec) 
Heartbeat CPU 0 instructions: 1720000001 cycles: 987992673 heartbeat IPC: 1.49884 cumulative IPC: 1.41378 (Simulation time: 2 hr 21 min 6 sec) 
Heartbeat CPU 0 instructions: 1730000001 cycles: 994646496 heartbeat IPC: 1.5029 cumulative IPC: 1.41446 (Simulation time: 2 hr 22 min 3 sec) 
Heartbeat CPU 0 instructions: 1740000001 cycles: 1001275841 heartbeat IPC: 1.50844 cumulative IPC: 1.41517 (Simulation time: 2 hr 22 min 59 sec) 
Heartbeat CPU 0 instructions: 1750000003 cycles: 1007936603 heartbeat IPC: 1.50133 cumulative IPC: 1.41582 (Simulation time: 2 hr 23 min 55 sec) 
Heartbeat CPU 0 instructions: 1760000004 cycles: 1014597290 heartbeat IPC: 1.50135 cumulative IPC: 1.41646 (Simulation time: 2 hr 24 min 52 sec) 
Heartbeat CPU 0 instructions: 1770000000 cycles: 1021246917 heartbeat IPC: 1.50384 cumulative IPC: 1.41711 (Simulation time: 2 hr 25 min 48 sec) 
Heartbeat CPU 0 instructions: 1780000000 cycles: 1027878519 heartbeat IPC: 1.50793 cumulative IPC: 1.41778 (Simulation time: 2 hr 26 min 44 sec) 
Heartbeat CPU 0 instructions: 1790000000 cycles: 1034510052 heartbeat IPC: 1.50795 cumulative IPC: 1.41843 (Simulation time: 2 hr 27 min 41 sec) 
Heartbeat CPU 0 instructions: 1800000000 cycles: 1041180311 heartbeat IPC: 1.49919 cumulative IPC: 1.41902 (Simulation time: 2 hr 28 min 38 sec) 
Heartbeat CPU 0 instructions: 1810000002 cycles: 1047850364 heartbeat IPC: 1.49924 cumulative IPC: 1.4196 (Simulation time: 2 hr 29 min 34 sec) 
Heartbeat CPU 0 instructions: 1820000000 cycles: 1054498688 heartbeat IPC: 1.50414 cumulative IPC: 1.42021 (Simulation time: 2 hr 30 min 31 sec) 
Heartbeat CPU 0 instructions: 1830000002 cycles: 1061154121 heartbeat IPC: 1.50253 cumulative IPC: 1.42079 (Simulation time: 2 hr 31 min 27 sec) 
Heartbeat CPU 0 instructions: 1840000001 cycles: 1067812428 heartbeat IPC: 1.50188 cumulative IPC: 1.42136 (Simulation time: 2 hr 32 min 23 sec) 
Heartbeat CPU 0 instructions: 1850000000 cycles: 1074503169 heartbeat IPC: 1.4946 cumulative IPC: 1.42188 (Simulation time: 2 hr 33 min 20 sec) 
Heartbeat CPU 0 instructions: 1860000000 cycles: 1081188879 heartbeat IPC: 1.49573 cumulative IPC: 1.4224 (Simulation time: 2 hr 34 min 16 sec) 
Heartbeat CPU 0 instructions: 1870000001 cycles: 1087883898 heartbeat IPC: 1.49365 cumulative IPC: 1.42289 (Simulation time: 2 hr 35 min 13 sec) 
Heartbeat CPU 0 instructions: 1880000004 cycles: 1094550371 heartbeat IPC: 1.50004 cumulative IPC: 1.42342 (Simulation time: 2 hr 36 min 9 sec) 
Heartbeat CPU 0 instructions: 1890000000 cycles: 1101252772 heartbeat IPC: 1.492 cumulative IPC: 1.42389 (Simulation time: 2 hr 37 min 5 sec) 
Heartbeat CPU 0 instructions: 1900000000 cycles: 1107924568 heartbeat IPC: 1.49885 cumulative IPC: 1.4244 (Simulation time: 2 hr 38 min 2 sec) 
Heartbeat CPU 0 instructions: 1910000002 cycles: 1114617003 heartbeat IPC: 1.49422 cumulative IPC: 1.42488 (Simulation time: 2 hr 38 min 58 sec) 
Heartbeat CPU 0 instructions: 1920000003 cycles: 1121283590 heartbeat IPC: 1.50002 cumulative IPC: 1.42538 (Simulation time: 2 hr 39 min 54 sec) 
Heartbeat CPU 0 instructions: 1930000001 cycles: 1127970741 heartbeat IPC: 1.4954 cumulative IPC: 1.42585 (Simulation time: 2 hr 40 min 51 sec) 
Heartbeat CPU 0 instructions: 1940000004 cycles: 1134670370 heartbeat IPC: 1.49262 cumulative IPC: 1.42629 (Simulation time: 2 hr 41 min 47 sec) 
Heartbeat CPU 0 instructions: 1950000000 cycles: 1141326736 heartbeat IPC: 1.50232 cumulative IPC: 1.42679 (Simulation time: 2 hr 42 min 44 sec) 
Heartbeat CPU 0 instructions: 1960000003 cycles: 1148052969 heartbeat IPC: 1.48672 cumulative IPC: 1.42718 (Simulation time: 2 hr 43 min 40 sec) 
Heartbeat CPU 0 instructions: 1970000004 cycles: 1154719615 heartbeat IPC: 1.5 cumulative IPC: 1.42765 (Simulation time: 2 hr 44 min 36 sec) 
Heartbeat CPU 0 instructions: 1980000000 cycles: 1161404590 heartbeat IPC: 1.49589 cumulative IPC: 1.42809 (Simulation time: 2 hr 45 min 32 sec) 
Heartbeat CPU 0 instructions: 1990000004 cycles: 1168109823 heartbeat IPC: 1.49137 cumulative IPC: 1.4285 (Simulation time: 2 hr 46 min 29 sec) 
*** Reached end of trace: traces/403.gcc-48B.champsimtrace.xz
Heartbeat CPU 0 instructions: 2000000000 cycles: 1174784093 heartbeat IPC: 1.49829 cumulative IPC: 1.42894 (Simulation time: 2 hr 47 min 25 sec) 
Finished CPU 0 instructions: 1500000004 cycles: 1049727423 cumulative IPC: 1.42894 (Simulation time: 2 hr 47 min 25 sec) 

ChampSim completed all CPUs

Region of Interest Statistics

CPU 0 cumulative IPC: 1.42894 instructions: 1500000004 cycles: 1049727423
cpu0_DTLB TOTAL     ACCESS:  356116944  HIT:  355496085  MISS:     620859
cpu0_DTLB LOAD      ACCESS:  198461340  HIT:  197850104  MISS:     611236
cpu0_DTLB RFO       ACCESS:  157655604  HIT:  157645981  MISS:       9623
cpu0_DTLB PREFETCH  ACCESS:          0  HIT:          0  MISS:          0
cpu0_DTLB WRITEBACK ACCESS:          0  HIT:          0  MISS:          0
cpu0_DTLB TRANSLATION ACCESS:          0  HIT:          0  MISS:          0
cpu0_DTLB PREFETCH  REQUESTED:          0  ISSUED:          0  USEFUL:          0  USELESS:          0
cpu0_DTLB AVERAGE MISS LATENCY: 10.7695 cycles
cpu0_ITLB TOTAL     ACCESS:  102062366  HIT:  102062360  MISS:          6
cpu0_ITLB LOAD      ACCESS:  102062366  HIT:  102062360  MISS:          6
cpu0_ITLB RFO       ACCESS:          0  HIT:          0  MISS:          0
cpu0_ITLB PREFETCH  ACCESS:          0  HIT:          0  MISS:          0
cpu0_ITLB WRITEBACK ACCESS:          0  HIT:          0  MISS:          0
cpu0_ITLB TRANSLATION ACCESS:          0  HIT:          0  MISS:          0
cpu0_ITLB PREFETCH  REQUESTED:          0  ISSUED:          0  USEFUL:          0  USELESS:          0
cpu0_ITLB AVERAGE MISS LATENCY: 229.5 cycles
cpu0_L1I TOTAL     ACCESS:  265694280  HIT:  265694187  MISS:         93
cpu0_L1I LOAD      ACCESS:  265694280  HIT:  265694187  MISS:         93
cpu0_L1I RFO       ACCESS:          0  HIT:          0  MISS:          0
cpu0_L1I PREFETCH  ACCESS:          0  HIT:          0  MISS:          0
cpu0_L1I WRITEBACK ACCESS:          0  HIT:          0  MISS:          0
cpu0_L1I TRANSLATION ACCESS:          0  HIT:          0  MISS:          0
cpu0_L1I PREFETCH  REQUESTED:          0  ISSUED:          0  USEFUL:          0  USELESS:          0
cpu0_L1I AVERAGE MISS LATENCY: 195.484 cycles
cpu0_STLB TOTAL     ACCESS:     620865  HIT:     569115  MISS:      51750
cpu0_STLB LOAD      ACCESS:     611242  HIT:     560341  MISS:      50901
cpu0_STLB RFO       ACCESS:       9623  HIT:       8774  MISS:        849
cpu0_STLB PREFETCH  ACCESS:          0  HIT:          0  MISS:          0
cpu0_STLB WRITEBACK ACCESS:          0  HIT:          0  MISS:          0
cpu0_STLB TRANSLATION ACCESS:          0  HIT:          0  MISS:          0
cpu0_STLB PREFETCH  REQUESTED:          0  ISSUED:          0  USEFUL:          0  USELESS:          0
cpu0_STLB AVERAGE MISS LATENCY: 21.0549 cycles
cpu0_L1D TOTAL     ACCESS:  451415018  HIT:  449497488  MISS:    1917530
cpu0_L1D LOAD      ACCESS:  202988195  HIT:  201131511  MISS:    1856684
cpu0_L1D RFO       ACCESS:  248375419  HIT:  248317377  MISS:      58042
cpu0_L1D PREFETCH  ACCESS:          0  HIT:          0  MISS:          0
cpu0_L1D WRITEBACK ACCESS:          0  HIT:          0  MISS:          0
cpu0_L1D TRANSLATION ACCESS:      51404  HIT:      48600  MISS:       2804
cpu0_L1D PREFETCH  REQUESTED:          0  ISSUED:          0  USEFUL:          0  USELESS:          0
cpu0_L1D AVERAGE MISS LATENCY: 72.18 cycles
cpu0_L2C TOTAL     ACCESS:    2092223  HIT:    1337877  MISS:     754346
cpu0_L2C LOAD      ACCESS:    1856719  HIT:    1157820  MISS:     698899
cpu0_L2C RFO       ACCESS:      58042  HIT:       3263  MISS:      54779
cpu0_L2C PREFETCH  ACCESS:          0  HIT:          0  MISS:          0
cpu0_L2C WRITEBACK ACCESS:     174658  HIT:     174131  MISS:        527
cpu0_L2C TRANSLATION ACCESS:       2804  HIT:       2663  MISS:        141
cpu0_L2C PREFETCH  REQUESTED:          0  ISSUED:          0  USEFUL:          0  USELESS:          0
cpu0_L2C AVERAGE MISS LATENCY: 155.519 cycles
LLC TOTAL     ACCESS:     882433  HIT:     257399  MISS:     625034
LLC LOAD      ACCESS:     698898  HIT:     127661  MISS:     571237
LLC RFO       ACCESS:      54779  HIT:       1693  MISS:      53086
LLC PREFETCH  ACCESS:          0  HIT:          0  MISS:          0
LLC WRITEBACK ACCESS:     128615  HIT:     127958  MISS:        657
LLC TRANSLATION ACCESS:        141  HIT:         87  MISS:         54
LLC PREFETCH  REQUESTED:          0  ISSUED:          0  USEFUL:          0  USELESS:          0
LLC AVERAGE MISS LATENCY: 162.367 cycles
~~~~~~~~~~Reuse Distance Profiler output~~~~~~~~~~
0	83979344	4526128
1	63429744	9891136
2	33279488	7062368
3	17912896	7248288
4	32891232	14170576
5	31773936	16533072
6	44714096	19863984
7	31556528	14577280
8	20133664	6217168
9	17592144	5787664
10	16858016	5574432
11	22498368	5749760
12	14061568	5335264
13	10148400	3623232
14	11810832	2425440
15	15085792	10047296
16	6849440	3757248
17	5792096	4949008
18	19335840	18143936
19	13505056	12556784
20	6953456	6634240
21	3481328	3220992
22	2052016	1815264
23	2670960	2476448
24	1929856	1761152
25	1224400	1118624
26	1301440	1235952
27	1242416	1189936
28	903072	835168
29	679360	623760
30	903088	853056
31	329888	289216
32	331856	280880
33	195920	137344
34	146032	82384
35	129040	70352
36	165568	99648
37	207616	139488
38	208976	147424
39	399088	350640
40	228704	183824
41	393920	347328
42	614496	563808
43	374464	330432
44	1109984	1064480
45	1110848	1074112
46	2259760	2221712
47	2073968	2029024
48	2057392	2020832
49	2068640	2042304
50	1299264	1277856
51	1664576	1646048
52	1382976	1364912
53	781728	761680
54	217072	201344
55	94112	82464
56	57248	45488
57	107520	94576
58	96416	81632
59	82464	68256
60	66720	53088
61	48208	37808
62	44496	35984
63	51328	43568
64	57792	42864
66	65696	53920
68	88048	77024
70	40432	28800
72	31488	20816
74	39024	27728
76	34832	21968
78	34112	23968
80	36160	22096
82	38592	27920
84	35552	23136
86	28032	14384
88	42208	22416
90	34720	16192
92	31696	13472
94	33936	13072
96	45072	24496
98	38800	16256
100	40464	22112
102	25056	9456
104	24032	11104
106	25952	13568
108	15824	8768
110	14896	10608
112	10096	6560
114	11008	8688
116	10080	8608
118	9104	7568
120	17456	16544
122	15776	14816
124	26416	25392
126	14304	13072
128	15216	13024
132	18944	16992
136	17920	15696
140	17888	16784
144	23056	22128
148	23024	22112
152	16224	15408
156	24464	23664
160	28272	27296
164	23856	22928
168	32944	31968
172	43184	42496
176	15088	14448
180	14752	14064
184	14016	13232
188	12528	11712
192	10784	10160
196	18624	18272
200	14720	14368
204	10704	10208
208	17600	16976
212	10720	10144
216	9792	9328
220	10976	10656
224	8352	7808
228	9216	8560
232	10416	10048
236	9264	8880
240	8960	8544
244	13600	13296
248	9440	8960
252	10368	9984
256	20592	19776
264	31472	30768
272	39808	38912
280	31488	30640
288	33888	33152
296	26864	26048
304	28224	27376
312	43072	42144
320	23168	22592
328	34464	33904
336	25456	24880
344	21424	20800
352	27888	27344
360	19728	19056
368	28944	28416
376	20368	19840
384	18736	18176
392	18768	18288
400	21424	21024
408	18400	18048
416	29872	29440
424	17888	17568
432	19136	18672
440	31152	30800
448	33568	33296
456	21120	20784
464	16704	16400
472	16000	15808
480	15120	14880
488	14624	14368
496	15504	15120
504	15744	15296
512	30560	29984
528	26272	25776
544	25920	25408
560	23488	23088
576	22528	22224
592	23648	23280
608	23024	22800
624	22992	22576
640	23184	22864
656	24048	23728
672	21920	21728
688	25360	25280
704	25728	25360
720	37456	37168
736	55040	54752
752	25792	25568
768	27072	26928
784	23680	23552
800	24944	24752
816	37344	37088
832	56592	56544
848	26848	26768
864	25632	25472
880	29888	29712
896	27360	27328
912	26272	26192
928	21504	21424
944	42512	42384
960	29232	29008
976	20320	20256
992	17984	17888
1008	18288	18176
1024	34896	34672
1056	47136	46960
1088	43936	43824
1120	45360	45184
1152	39712	39600
1184	40000	39952
1216	50912	50784
1248	43376	43344
1280	37376	37264
1312	31776	31424
1344	29744	29728
1376	35888	35856
1408	34720	34704
1440	37424	37376
1472	29760	29696
1504	34096	34096
1536	31664	31664
1568	21824	21808
1600	25456	25440
1632	28688	28624
1664	24880	24848
1696	25376	25344
1728	26864	26832
1760	25584	25584
1792	33472	33424
1824	35312	35296
1856	23024	22992
1888	35488	35456
1920	36032	36016
1952	29744	29728
1984	23184	23184
2016	25936	25888
2048	52496	52448
2112	61136	61088
2176	67744	67712
2240	67168	67168
2304	68064	68064
2368	69856	69840
2432	120400	120400
2496	88496	88448
2560	73824	73792
2624	101216	101216
2688	128912	128864
2752	74960	74928
2816	82144	82080
2880	92928	92880
2944	93856	93776
3008	114528	114480
3072	94784	94688
3136	95024	94912
3200	113904	113904
3264	80480	80448
3328	105136	105104
3392	68640	68592
3456	100720	100656
3520	93360	93328
3584	112704	112608
3648	109008	108960
3712	101904	101888
3776	133488	133488
3840	115792	115792
3904	164960	164928
3968	120224	120208
4032	84384	84384
4096	228544	228544
4224	251632	251600
4352	236256	236224
4480	310208	310160
4608	219216	219200
4736	231920	231824
4864	223856	223824
4992	195584	195568
5120	301520	301504
5248	210432	210416
5376	235568	235504
5504	217536	217408
5632	184624	184464
5760	177312	177312
5888	249344	249056
6016	198496	197888
6144	210528	209904
6272	190544	190064
6400	169200	168800
6528	198480	198400
6656	164176	164032
6784	154736	154592
6912	128304	128192
7040	100576	100288
7168	124896	124736
7296	84960	84896
7424	108640	108624
7552	87936	87936
7680	105952	105920
7808	130208	130192
7936	120016	119984
8064	103920	103904
8192	191312	191280
8448	589936	589936
8704	4299792	4299568
8960	5913728	5912176
9216	9996368	9993296
9472	1705088	1704528
9728	2509104	2509072
9984	1098256	1098192
10240	99952	99952
10496	5616	5616
10752	2240	2240
11008	2784	2784
11264	2240	2240
11520	2048	2048
11776	4912	4912
12032	4608	4608
12288	2992	2992
12544	2096	2096
12800	2672	2672
13056	3632	3600
13312	4000	3984
13568	5024	5024
13824	4480	4416
14080	7488	7440
14336	10800	10736
14592	10176	10096
14848	5184	5120
15104	4112	4080
15360	2192	2192
15616	2224	2224
15872	2208	2208
16128	2592	2592
16384	4640	4640
16896	5200	5200
17408	5920	5840
17920	9648	9600
18432	13904	13008
18944	28704	28672
19456	10864	10864
19968	3088	3088
20480	3088	3088
20992	3008	3008
21504	2672	2624
22016	5264	5232
22528	5248	5216
23040	4928	4896
23552	2928	2864
24064	3200	3168
24576	2576	2576
25088	3616	3616
25600	3568	3520
26112	3376	3376
26624	3344	3152
27136	6432	6208
27648	14864	14624
28160	7120	6800
28672	6000	6000
29184	3168	3168
29696	1824	1792
30208	1472	1472
30720	1584	1536
31232	1440	1408
31744	1888	1824
32256	1360	1360
32768	2672	2656
33792	2336	2336
34816	4016	4016
35840	8208	7584
36864	17888	16816
37888	8160	8160
38912	2912	2912
39936	2320	2304
40960	2016	2016
41984	2464	2416
43008	2432	2432
44032	3232	3216
45056	5248	5200
46080	6928	6784
47104	7264	7248
48128	2624	2608
49152	1280	1280
50176	2128	2128
51200	2992	2992
52224	2016	2016
53248	2288	2144
54272	6992	6528
55296	11360	10480
56320	5968	5936
57344	2464	2464
58368	1600	1568
59392	1536	1536
60416	1952	1936
61440	1648	1648
62464	1904	1904
63488	3296	3024
64512	7136	6496
65536	8512	8400
67584	3200	3200
69632	2864	2864
71680	3008	2960
73728	6992	6592
75776	3984	3984
77824	4304	4304
79872	3664	3648
81920	4224	3984
83968	4656	4576
86016	3088	3088
88064	3696	3664
90112	3776	3600
92160	9744	9328
94208	8016	8000
96256	2272	2272
98304	2000	2000
100352	5008	4880
102400	12016	11808
104448	2624	2624
106496	1888	1888
108544	3424	3280
110592	3984	3904
112640	6576	6560
114688	1936	1936
116736	2144	2128
118784	2496	2368
120832	3584	3520
122880	3024	3024
124928	1440	1440
126976	2160	2080
129024	3200	3120
131072	5424	5408
135168	7424	7008
139264	5280	5264
143360	6336	6208
147456	9328	8848
151552	3440	3360
155648	10448	10224
159744	3616	3568
163840	3680	3520
167936	4800	4672
172032	2144	2144
176128	4048	3952
180224	2144	2144
184320	2528	2464
188416	2096	2096
192512	1904	1888
196608	2192	2192
200704	2160	2160
204800	2320	2320
208896	3008	2864
212992	1840	1840
217088	1984	1984
221184	1600	1584
225280	1264	1264
229376	1168	1168
233472	1600	1600
237568	1072	1072
241664	1360	1360
245760	1728	1648
249856	3520	3520
253952	2640	2640
258048	1152	1152
262144	2048	2032
270336	1696	1680
278528	2704	2704
286720	2752	2720
294912	1616	1616
303104	1840	1824
311296	2304	2224
319488	3200	3168
327680	1376	1376
335872	1248	1248
344064	1728	1728
352256	1200	1184
360448	1360	1360
368640	960	944
376832	1152	1136
385024	848	848
393216	1152	1152
401408	1136	1136
409600	1648	1632
417792	1376	1344
425984	1056	1040
434176	912	880
442368	1232	1232
450560	864	784
458752	1088	1072
466944	1152	1136
475136	1168	1104
483328	1024	992
491520	1040	1008
499712	1152	1136
507904	1168	1120
516096	1216	1184
524288	2560	2464
540672	2480	2368
557056	1984	1984
573440	2240	2064
589824	2080	2016
606208	2096	2016
622592	4656	4608
638976	2272	2240
655360	14880	14880
671744	3536	3504
688128	1808	1760
704512	1888	1840
720896	2368	2336
737280	1968	1920
753664	1696	1680
770048	3744	3712
786432	4896	4880
802816	1792	1792
819200	1536	1536
835584	2016	2016
851968	1984	1968
868352	1200	1200
884736	1856	1824
901120	1616	1616
917504	1392	1392
933888	1872	1856
950272	1648	1648
966656	1312	1312
983040	1664	1648
999424	1472	1472
1015808	1600	1520
1032192	1872	1824
1048576	3056	2992
1081344	3280	3216
1114112	3280	3200
1146880	3360	3248
1179648	3744	3648
1212416	3120	2992
1245184	3616	3520
1277952	3360	3184
1310720	3472	3344
1343488	3728	3600
1376256	3136	2960
1409024	3600	3520
1441792	2832	2720
1474560	3296	3248
1507328	3136	3088
1540096	3696	3632
1572864	2720	2704
1605632	2800	2768
1638400	3104	3088
1671168	2928	2912
1703936	2496	2464
1736704	2912	2912
1769472	2752	2720
1802240	2816	2784
1835008	2832	2752
1867776	2720	2704
1900544	2384	2368
1933312	2288	2256
1966080	1968	1936
1998848	1792	1776
2031616	2464	2432
2064384	2816	2800
2097152	5216	5184
2162688	5248	5232
2228224	4944	4880
2293760	4160	4160
2359296	3536	3520
2424832	3648	3616
2490368	3904	3824
2555904	3920	3904
2621440	3936	3856
2686976	3792	3744
2752512	3856	3824
2818048	4112	4096
2883584	3728	3648
2949120	4000	3904
3014656	3856	3776
3080192	2672	2576
3145728	4256	4176
3211264	3744	3744
3276800	3472	3408
3342336	3232	3184
3407872	3456	3440
3473408	4016	3952
3538944	2624	2560
3604480	3232	3168
3670016	3136	3136
3735552	3424	3360
3801088	3744	3616
3866624	2816	2720
3932160	2672	2672
3997696	3488	3472
4063232	2672	2608
4128768	2816	2784
4194304	5936	5856
4325376	5104	5040
4456448	5584	5504
4587520	5136	5056
4718592	5344	5328
4849664	5488	5392
4980736	4944	4880
5111808	5088	4976
5242880	4448	4336
5373952	5184	5088
5505024	4224	4176
5636096	6224	6080
5767168	4272	4224
5898240	3872	3792
6029312	4880	4784
6160384	4496	4384
6291456	4656	4608
6422528	3920	3728
6553600	4496	4384
6684672	4256	4096
6815744	4368	4320
6946816	3968	3920
7077888	4992	4864
7208960	3472	3360
7340032	4288	4256
7471104	3136	3056
7602176	4624	4528
7733248	3632	3552
7864320	3040	2976
7995392	4288	4176
8126464	3488	3408
8257536	3152	3072
8388608	7072	6896
8650752	5904	5664
8912896	5952	5808
9175040	6112	5984
9437184	5552	5360
9699328	5536	5392
9961472	5424	5280
10223616	5872	5632
10485760	5408	5168
10747904	4576	4400
11010048	4784	4608
11272192	2976	2864
11534336	1936	1760
11796480	2224	2080
12058624	2096	1936
12320768	1536	1360
12582912	1008	976
12845056	1104	1088
13107200	1440	1360
13369344	3088	3040
13631488	2032	1984
13893632	880	784
14155776	944	896
14417920	1088	1008
14680064	1120	880
14942208	864	816
15204352	880	816
15466496	1232	1152
15728640	736	688
15990784	896	880
16252928	928	912
16515072	864	864
16777216	1808	1744
17301504	1744	1680
17825792	1472	1440
18350080	1424	1360
18874368	1696	1632
19398656	1664	1648
19922944	1408	1312
20447232	1360	1248
20971520	1472	1360
21495808	1552	1520
22020096	1248	1072
22544384	1392	1360
23068672	1408	1312
23592960	1184	1104
24117248	1520	1440
24641536	1248	1184
25165824	1392	1360
25690112	1360	1296
26214400	1488	1088
26738688	1200	1168
27262976	1504	1424
27787264	1216	1200
28311552	1232	1184
28835840	1376	1344
29360128	1296	1264
29884416	1248	1248
30408704	1312	1264
30932992	1216	1184
31457280	1152	1136
31981568	1280	1232
32505856	1232	1200
33030144	1296	1200
33554432	2496	2320
34603008	2432	2336
35651584	2208	2112
36700160	2448	2336
37748736	2032	1808
38797312	2352	2160
39845888	2016	1776
40894464	2032	1888
41943040	2240	2048
42991616	2112	1936
44040192	1840	1760
45088768	1872	1808
46137344	1632	1520
47185920	2128	1680
48234496	1536	1504
49283072	1776	1632
50331648	1584	1520
51380224	1888	1856
52428800	1776	1728
53477376	1488	1488
54525952	1504	1408
55574528	1392	1296
56623104	1344	1264
57671680	1696	1648
58720256	1456	1328
59768832	1376	1312
60817408	1456	1376
61865984	1680	1632
62914560	1392	1360
63963136	1472	1360
65011712	1472	1360
66060288	1344	1280
67108864	3200	2976
69206016	2784	2656
71303168	2688	2496
73400320	2752	2560
75497472	2832	2624
77594624	2960	2208
79691776	3120	2272
81788928	3328	2528
83886080	2672	2256
85983232	4768	2528
88080384	2400	2272
90177536	2544	2464
92274688	2320	2208
94371840	2256	2160
96468992	2112	2016
98566144	2032	2032
100663296	1984	1984
102760448	1792	1792
104857600	2224	2208
106954752	1808	1776
109051904	2160	2080
111149056	2000	1952
113246208	2128	2096
115343360	2016	1968
117440512	1680	1664
119537664	1744	1664
121634816	2064	2000
123731968	1744	1584
125829120	1760	1632
127926272	1696	1600
130023424	1712	1584
132120576	2000	1888
134217728	3536	3200
138412032	2768	2544
142606336	2592	2384
146800640	2016	1856
150994944	1760	1584
155189248	1392	1120
159383552	1344	1152
163577856	1520	1344
167772160	1424	1184
171966464	1488	1280
176160768	1184	880
180355072	976	816
184549376	1200	1072
188743680	960	720
192937984	1840	1568
197132288	1296	1056
201326592	992	848
205520896	1040	816
209715200	1376	1216
213909504	1248	1008
218103808	1120	864
222298112	1408	1184
226492416	1104	864
230686720	1280	1008
234881024	1328	1136
239075328	1296	992
243269632	1104	896
247463936	1072	960
251658240	1008	912
255852544	1344	1072
260046848	1312	1136
264241152	1216	1024
268435456	3408	1648
276824064	8704	1648
285212672	2240	1824
293601280	2032	1968
301989888	2064	2064
310378496	1952	1952
318767104	1792	1792
327155712	1872	1872
335544320	1856	1856
343932928	1984	1984
352321536	1680	1680
360710144	2256	2256
369098752	1872	1792
377487360	2208	1904
385875968	2512	2144
394264576	2160	1824
402653184	2432	2112
411041792	2112	1808
419430400	2304	1888
427819008	2400	2032
436207616	2336	2000
444596224	1424	928
452984832	96	0
461373440	0	0
469762048	0	0
478150656	0	0
486539264	0	0
494927872	0	0
503316480	0	0
511705088	0	0
520093696	0	0
528482304	0	0
536870912	0	0
553648128	0	0
570425344	0	0
587202560	0	0
603979776	0	0
620756992	0	0
637534208	0	0
654311424	0	0
671088640	0	0
687865856	0	0
704643072	0	0
721420288	0	0
738197504	0	0
754974720	0	0
771751936	0	0
788529152	0	0
805306368	0	0
822083584	0	0
838860800	0	0
855638016	0	0
872415232	0	0
889192448	0	0
905969664	0	0
922746880	0	0
939524096	0	0
956301312	0	0
973078528	0	0
989855744	0	0
1006632960	0	0
1023410176	0	0
1040187392	0	0
1056964608	0	0
1073741824	0	0
1107296256	0	0
1140850688	0	0
1174405120	0	0
1207959552	0	0
1241513984	0	0
1275068416	0	0
1308622848	0	0
1342177280	0	0
1375731712	0	0
1409286144	0	0
1442840576	0	0
1476395008	0	0
1509949440	0	0
1543503872	0	0
1577058304	0	0
1610612736	0	0
1644167168	0	0
1677721600	0	0
1711276032	0	0
1744830464	0	0
1778384896	0	0
1811939328	0	0
1845493760	0	0
1879048192	0	0
1912602624	0	0
1946157056	0	0
1979711488	0	0
2013265920	0	0
2046820352	0	0
2080374784	0	0
2113929216	0	0
2147483648	0	0
2214592512	0	0
2281701376	0	0
2348810240	0	0
2415919104	0	0
2483027968	0	0
2550136832	0	0
2617245696	0	0
2684354560	0	0
2751463424	0	0
2818572288	0	0
2885681152	0	0
2952790016	0	0
3019898880	0	0
3087007744	0	0
3154116608	0	0
3221225472	0	0
3288334336	0	0
3355443200	0	0
3422552064	0	0
3489660928	0	0
3556769792	0	0
3623878656	0	0
3690987520	0	0
3758096384	0	0
3825205248	0	0
3892314112	0	0
3959422976	0	0
4026531840	0	0
4093640704	0	0
4160749568	0	0
4227858432	0	0
~~~~~~~~~~Reuse Distance Profiler output end~~~~~~~~~~

DRAM Statistics
 CHANNEL 0
 RQ ROW_BUFFER_HIT:      63853  ROW_BUFFER_MISS:     560495
 DBUS AVG_CONGESTED_CYCLE:    3.87321
 WQ ROW_BUFFER_HIT:      47174  ROW_BUFFER_MISS:      47183  FULL:          0


CPU 0 Branch Prediction Accuracy: 99.3112% MPKI: 1.54341 Average ROB Occupancy at Mispredict: 44.1882
Branch type MPKI
BRANCH_DIRECT_JUMP: 2.2e-05
BRANCH_INDIRECT: 3.66667e-05
BRANCH_CONDITIONAL: 1.54317
BRANCH_DIRECT_CALL: 2.2e-05
BRANCH_INDIRECT_CALL: 0.00014
BRANCH_RETURN: 2.4e-05

