
*** ChampSim Multicore Out-of-Order Simulator ***

Warmup Instructions: 500000000
Simulation Instructions: 1500000000
Number of CPUs: 1
Off-chip DRAM Size: 4 GiB Channels: 1 Width: 64-bit Data Rate: 3200 MT/s

VirtualMemory physical capacity: 8588881920 num_ppages: 2096895
VirtualMemory page size: 4096 log2_page_size: 12

CPU 0 runs traces/410.bwaves-945B.champsimtrace.xz
CPU 0 Bimodal branch predictor
Basic BTB sets: 1024 ways: 8 indirect buffer size: 4096 RAS size: 64
Initializing LRU.
Initializing LRU.
Initializing LRU.
Initializing LRU.
Initializing rdLRU.
Initializing LRU.
Initializing LRU.
Heartbeat CPU 0 instructions: 10000001 cycles: 2500118 heartbeat IPC: 3.99981 cumulative IPC: 3.99981 (Simulation time: 0 hr 0 min 27 sec) 
Heartbeat CPU 0 instructions: 20000001 cycles: 5000118 heartbeat IPC: 4 cumulative IPC: 3.99991 (Simulation time: 0 hr 0 min 54 sec) 
Heartbeat CPU 0 instructions: 30000001 cycles: 7500118 heartbeat IPC: 4 cumulative IPC: 3.99994 (Simulation time: 0 hr 1 min 21 sec) 
Heartbeat CPU 0 instructions: 40000001 cycles: 10000118 heartbeat IPC: 4 cumulative IPC: 3.99995 (Simulation time: 0 hr 1 min 47 sec) 
Heartbeat CPU 0 instructions: 50000001 cycles: 12500118 heartbeat IPC: 4 cumulative IPC: 3.99996 (Simulation time: 0 hr 2 min 14 sec) 
Heartbeat CPU 0 instructions: 60000001 cycles: 15000118 heartbeat IPC: 4 cumulative IPC: 3.99997 (Simulation time: 0 hr 2 min 41 sec) 
Heartbeat CPU 0 instructions: 70000001 cycles: 17500118 heartbeat IPC: 4 cumulative IPC: 3.99997 (Simulation time: 0 hr 3 min 8 sec) 
Heartbeat CPU 0 instructions: 80000003 cycles: 20000119 heartbeat IPC: 4 cumulative IPC: 3.99998 (Simulation time: 0 hr 3 min 35 sec) 
Heartbeat CPU 0 instructions: 90000003 cycles: 22500119 heartbeat IPC: 4 cumulative IPC: 3.99998 (Simulation time: 0 hr 4 min 1 sec) 
Heartbeat CPU 0 instructions: 100000003 cycles: 25000119 heartbeat IPC: 4 cumulative IPC: 3.99998 (Simulation time: 0 hr 4 min 29 sec) 
Heartbeat CPU 0 instructions: 110000003 cycles: 27500119 heartbeat IPC: 4 cumulative IPC: 3.99998 (Simulation time: 0 hr 4 min 55 sec) 
Heartbeat CPU 0 instructions: 120000002 cycles: 30000119 heartbeat IPC: 4 cumulative IPC: 3.99998 (Simulation time: 0 hr 5 min 22 sec) 
Heartbeat CPU 0 instructions: 130000002 cycles: 32500119 heartbeat IPC: 4 cumulative IPC: 3.99999 (Simulation time: 0 hr 5 min 49 sec) 
Heartbeat CPU 0 instructions: 140000002 cycles: 35000119 heartbeat IPC: 4 cumulative IPC: 3.99999 (Simulation time: 0 hr 6 min 16 sec) 
Heartbeat CPU 0 instructions: 150000003 cycles: 37500120 heartbeat IPC: 4 cumulative IPC: 3.99999 (Simulation time: 0 hr 6 min 43 sec) 
Heartbeat CPU 0 instructions: 160000003 cycles: 40000120 heartbeat IPC: 4 cumulative IPC: 3.99999 (Simulation time: 0 hr 7 min 10 sec) 
Heartbeat CPU 0 instructions: 170000000 cycles: 42500121 heartbeat IPC: 4 cumulative IPC: 3.99999 (Simulation time: 0 hr 7 min 37 sec) 
Heartbeat CPU 0 instructions: 180000001 cycles: 45000122 heartbeat IPC: 4 cumulative IPC: 3.99999 (Simulation time: 0 hr 8 min 4 sec) 
Heartbeat CPU 0 instructions: 190000001 cycles: 47500122 heartbeat IPC: 4 cumulative IPC: 3.99999 (Simulation time: 0 hr 8 min 30 sec) 
Heartbeat CPU 0 instructions: 200000001 cycles: 50000122 heartbeat IPC: 4 cumulative IPC: 3.99999 (Simulation time: 0 hr 8 min 57 sec) 
Heartbeat CPU 0 instructions: 210000001 cycles: 52500122 heartbeat IPC: 4 cumulative IPC: 3.99999 (Simulation time: 0 hr 9 min 24 sec) 
Heartbeat CPU 0 instructions: 220000000 cycles: 55000122 heartbeat IPC: 4 cumulative IPC: 3.99999 (Simulation time: 0 hr 9 min 51 sec) 
Heartbeat CPU 0 instructions: 230000000 cycles: 57500122 heartbeat IPC: 4 cumulative IPC: 3.99999 (Simulation time: 0 hr 10 min 18 sec) 
Heartbeat CPU 0 instructions: 240000003 cycles: 60000127 heartbeat IPC: 3.99999 cumulative IPC: 3.99999 (Simulation time: 0 hr 10 min 45 sec) 
Heartbeat CPU 0 instructions: 250000000 cycles: 62500127 heartbeat IPC: 4 cumulative IPC: 3.99999 (Simulation time: 0 hr 11 min 12 sec) 
Heartbeat CPU 0 instructions: 260000000 cycles: 65000127 heartbeat IPC: 4 cumulative IPC: 3.99999 (Simulation time: 0 hr 11 min 39 sec) 
Heartbeat CPU 0 instructions: 270000000 cycles: 67500128 heartbeat IPC: 4 cumulative IPC: 3.99999 (Simulation time: 0 hr 12 min 6 sec) 
Heartbeat CPU 0 instructions: 280000000 cycles: 70000128 heartbeat IPC: 4 cumulative IPC: 3.99999 (Simulation time: 0 hr 12 min 33 sec) 
Heartbeat CPU 0 instructions: 290000003 cycles: 72500130 heartbeat IPC: 4 cumulative IPC: 3.99999 (Simulation time: 0 hr 13 min 0 sec) 
Heartbeat CPU 0 instructions: 300000002 cycles: 75000133 heartbeat IPC: 3.99999 cumulative IPC: 3.99999 (Simulation time: 0 hr 13 min 27 sec) 
Heartbeat CPU 0 instructions: 310000003 cycles: 77500134 heartbeat IPC: 4 cumulative IPC: 3.99999 (Simulation time: 0 hr 13 min 54 sec) 
Heartbeat CPU 0 instructions: 320000003 cycles: 80000134 heartbeat IPC: 4 cumulative IPC: 3.99999 (Simulation time: 0 hr 14 min 21 sec) 
Heartbeat CPU 0 instructions: 330000003 cycles: 82500134 heartbeat IPC: 4 cumulative IPC: 3.99999 (Simulation time: 0 hr 14 min 47 sec) 
Heartbeat CPU 0 instructions: 340000002 cycles: 85000134 heartbeat IPC: 4 cumulative IPC: 3.99999 (Simulation time: 0 hr 15 min 14 sec) 
Heartbeat CPU 0 instructions: 350000002 cycles: 87500134 heartbeat IPC: 4 cumulative IPC: 3.99999 (Simulation time: 0 hr 15 min 41 sec) 
Heartbeat CPU 0 instructions: 360000002 cycles: 90000134 heartbeat IPC: 4 cumulative IPC: 3.99999 (Simulation time: 0 hr 16 min 8 sec) 
Heartbeat CPU 0 instructions: 370000002 cycles: 92500134 heartbeat IPC: 4 cumulative IPC: 3.99999 (Simulation time: 0 hr 16 min 35 sec) 
Heartbeat CPU 0 instructions: 380000000 cycles: 95000134 heartbeat IPC: 4 cumulative IPC: 3.99999 (Simulation time: 0 hr 17 min 2 sec) 
Heartbeat CPU 0 instructions: 390000000 cycles: 97500134 heartbeat IPC: 4 cumulative IPC: 3.99999 (Simulation time: 0 hr 17 min 29 sec) 
Heartbeat CPU 0 instructions: 400000003 cycles: 100000136 heartbeat IPC: 4 cumulative IPC: 3.99999 (Simulation time: 0 hr 17 min 56 sec) 
Heartbeat CPU 0 instructions: 410000003 cycles: 102500137 heartbeat IPC: 4 cumulative IPC: 3.99999 (Simulation time: 0 hr 18 min 22 sec) 
Heartbeat CPU 0 instructions: 420000003 cycles: 105000137 heartbeat IPC: 4 cumulative IPC: 3.99999 (Simulation time: 0 hr 18 min 49 sec) 
Heartbeat CPU 0 instructions: 430000003 cycles: 107500137 heartbeat IPC: 4 cumulative IPC: 3.99999 (Simulation time: 0 hr 19 min 16 sec) 
Heartbeat CPU 0 instructions: 440000000 cycles: 110000137 heartbeat IPC: 4 cumulative IPC: 3.99999 (Simulation time: 0 hr 19 min 43 sec) 
Heartbeat CPU 0 instructions: 450000000 cycles: 112500137 heartbeat IPC: 4 cumulative IPC: 4 (Simulation time: 0 hr 20 min 10 sec) 
Heartbeat CPU 0 instructions: 460000000 cycles: 115000137 heartbeat IPC: 4 cumulative IPC: 4 (Simulation time: 0 hr 20 min 37 sec) 
Heartbeat CPU 0 instructions: 470000002 cycles: 117500138 heartbeat IPC: 4 cumulative IPC: 4 (Simulation time: 0 hr 21 min 3 sec) 
Heartbeat CPU 0 instructions: 480000002 cycles: 120000138 heartbeat IPC: 4 cumulative IPC: 4 (Simulation time: 0 hr 21 min 30 sec) 
Heartbeat CPU 0 instructions: 490000002 cycles: 122500138 heartbeat IPC: 4 cumulative IPC: 4 (Simulation time: 0 hr 21 min 57 sec) 
Heartbeat CPU 0 instructions: 500000002 cycles: 125000138 heartbeat IPC: 4 cumulative IPC: 4 (Simulation time: 0 hr 22 min 24 sec) 

Warmup complete CPU 0 instructions: 500000002 cycles: 125000138 (Simulation time: 0 hr 22 min 24 sec) 

Heartbeat CPU 0 instructions: 510000001 cycles: 130527150 heartbeat IPC: 1.8093 cumulative IPC: 1.8093 (Simulation time: 0 hr 22 min 53 sec) 
Heartbeat CPU 0 instructions: 520000002 cycles: 136077868 heartbeat IPC: 1.80157 cumulative IPC: 1.80542 (Simulation time: 0 hr 23 min 23 sec) 
Heartbeat CPU 0 instructions: 530000004 cycles: 141580918 heartbeat IPC: 1.81717 cumulative IPC: 1.80932 (Simulation time: 0 hr 23 min 52 sec) 
Heartbeat CPU 0 instructions: 540000000 cycles: 147108404 heartbeat IPC: 1.80914 cumulative IPC: 1.80928 (Simulation time: 0 hr 24 min 22 sec) 
Heartbeat CPU 0 instructions: 550000002 cycles: 152614722 heartbeat IPC: 1.8161 cumulative IPC: 1.81064 (Simulation time: 0 hr 24 min 51 sec) 
Heartbeat CPU 0 instructions: 560000000 cycles: 158141907 heartbeat IPC: 1.80924 cumulative IPC: 1.8104 (Simulation time: 0 hr 25 min 21 sec) 
Heartbeat CPU 0 instructions: 570000001 cycles: 163649160 heartbeat IPC: 1.81579 cumulative IPC: 1.81117 (Simulation time: 0 hr 25 min 50 sec) 
Heartbeat CPU 0 instructions: 580000000 cycles: 169164936 heartbeat IPC: 1.81298 cumulative IPC: 1.8114 (Simulation time: 0 hr 26 min 20 sec) 
Heartbeat CPU 0 instructions: 590000001 cycles: 174684467 heartbeat IPC: 1.81175 cumulative IPC: 1.81144 (Simulation time: 0 hr 26 min 49 sec) 
Heartbeat CPU 0 instructions: 600000003 cycles: 180175739 heartbeat IPC: 1.82107 cumulative IPC: 1.8124 (Simulation time: 0 hr 27 min 19 sec) 
Heartbeat CPU 0 instructions: 610000000 cycles: 185699798 heartbeat IPC: 1.81026 cumulative IPC: 1.8122 (Simulation time: 0 hr 27 min 48 sec) 
Heartbeat CPU 0 instructions: 620000003 cycles: 191196864 heartbeat IPC: 1.81915 cumulative IPC: 1.81278 (Simulation time: 0 hr 28 min 18 sec) 
Heartbeat CPU 0 instructions: 630000002 cycles: 196699595 heartbeat IPC: 1.81728 cumulative IPC: 1.81312 (Simulation time: 0 hr 28 min 48 sec) 
Heartbeat CPU 0 instructions: 640000003 cycles: 202305394 heartbeat IPC: 1.78387 cumulative IPC: 1.811 (Simulation time: 0 hr 29 min 25 sec) 
Heartbeat CPU 0 instructions: 650000001 cycles: 207829454 heartbeat IPC: 1.81026 cumulative IPC: 1.81095 (Simulation time: 0 hr 29 min 54 sec) 
Heartbeat CPU 0 instructions: 660000004 cycles: 213330394 heartbeat IPC: 1.81787 cumulative IPC: 1.81138 (Simulation time: 0 hr 30 min 24 sec) 
Heartbeat CPU 0 instructions: 670000002 cycles: 218852701 heartbeat IPC: 1.81084 cumulative IPC: 1.81135 (Simulation time: 0 hr 30 min 53 sec) 
Heartbeat CPU 0 instructions: 680000001 cycles: 224380233 heartbeat IPC: 1.80913 cumulative IPC: 1.81123 (Simulation time: 0 hr 31 min 23 sec) 
Heartbeat CPU 0 instructions: 690000004 cycles: 229880394 heartbeat IPC: 1.81813 cumulative IPC: 1.81159 (Simulation time: 0 hr 31 min 52 sec) 
Heartbeat CPU 0 instructions: 700000002 cycles: 235404849 heartbeat IPC: 1.81013 cumulative IPC: 1.81152 (Simulation time: 0 hr 32 min 21 sec) 
Heartbeat CPU 0 instructions: 710000003 cycles: 240913307 heartbeat IPC: 1.81539 cumulative IPC: 1.8117 (Simulation time: 0 hr 32 min 51 sec) 
Heartbeat CPU 0 instructions: 720000003 cycles: 246430821 heartbeat IPC: 1.81241 cumulative IPC: 1.81173 (Simulation time: 0 hr 33 min 20 sec) 
Heartbeat CPU 0 instructions: 730000001 cycles: 251960210 heartbeat IPC: 1.80852 cumulative IPC: 1.81159 (Simulation time: 0 hr 33 min 50 sec) 
Heartbeat CPU 0 instructions: 740000000 cycles: 257463127 heartbeat IPC: 1.81722 cumulative IPC: 1.81183 (Simulation time: 0 hr 34 min 19 sec) 
Heartbeat CPU 0 instructions: 750000001 cycles: 262990150 heartbeat IPC: 1.80929 cumulative IPC: 1.81173 (Simulation time: 0 hr 34 min 49 sec) 
Heartbeat CPU 0 instructions: 760000004 cycles: 268494104 heartbeat IPC: 1.81688 cumulative IPC: 1.81192 (Simulation time: 0 hr 35 min 18 sec) 
Heartbeat CPU 0 instructions: 770000003 cycles: 274021764 heartbeat IPC: 1.80908 cumulative IPC: 1.81182 (Simulation time: 0 hr 35 min 48 sec) 
Heartbeat CPU 0 instructions: 780000003 cycles: 279552753 heartbeat IPC: 1.80799 cumulative IPC: 1.81168 (Simulation time: 0 hr 36 min 17 sec) 
Heartbeat CPU 0 instructions: 790000000 cycles: 285056705 heartbeat IPC: 1.81688 cumulative IPC: 1.81186 (Simulation time: 0 hr 36 min 47 sec) 
Heartbeat CPU 0 instructions: 800000001 cycles: 290586851 heartbeat IPC: 1.80827 cumulative IPC: 1.81174 (Simulation time: 0 hr 37 min 16 sec) 
Heartbeat CPU 0 instructions: 810000001 cycles: 296093623 heartbeat IPC: 1.81595 cumulative IPC: 1.81187 (Simulation time: 0 hr 37 min 46 sec) 
Heartbeat CPU 0 instructions: 820000000 cycles: 301673859 heartbeat IPC: 1.79204 cumulative IPC: 1.81125 (Simulation time: 0 hr 38 min 15 sec) 
Heartbeat CPU 0 instructions: 830000003 cycles: 307409986 heartbeat IPC: 1.74334 cumulative IPC: 1.80911 (Simulation time: 0 hr 38 min 45 sec) 
Heartbeat CPU 0 instructions: 840000000 cycles: 313144512 heartbeat IPC: 1.74382 cumulative IPC: 1.80712 (Simulation time: 0 hr 39 min 14 sec) 
Heartbeat CPU 0 instructions: 850000004 cycles: 319421459 heartbeat IPC: 1.59313 cumulative IPC: 1.80021 (Simulation time: 0 hr 39 min 44 sec) 
Heartbeat CPU 0 instructions: 860000001 cycles: 324927336 heartbeat IPC: 1.81624 cumulative IPC: 1.80066 (Simulation time: 0 hr 40 min 13 sec) 
Heartbeat CPU 0 instructions: 870000004 cycles: 330773608 heartbeat IPC: 1.71049 cumulative IPC: 1.79809 (Simulation time: 0 hr 40 min 43 sec) 
Heartbeat CPU 0 instructions: 880000000 cycles: 336301440 heartbeat IPC: 1.80903 cumulative IPC: 1.79838 (Simulation time: 0 hr 41 min 12 sec) 
Heartbeat CPU 0 instructions: 890000001 cycles: 341827405 heartbeat IPC: 1.80964 cumulative IPC: 1.79867 (Simulation time: 0 hr 41 min 42 sec) 
Heartbeat CPU 0 instructions: 900000000 cycles: 347622097 heartbeat IPC: 1.72572 cumulative IPC: 1.79677 (Simulation time: 0 hr 42 min 11 sec) 
Heartbeat CPU 0 instructions: 910000004 cycles: 353123534 heartbeat IPC: 1.81771 cumulative IPC: 1.79727 (Simulation time: 0 hr 42 min 41 sec) 
Heartbeat CPU 0 instructions: 920000003 cycles: 358648929 heartbeat IPC: 1.80983 cumulative IPC: 1.79757 (Simulation time: 0 hr 43 min 10 sec) 
Heartbeat CPU 0 instructions: 930000002 cycles: 364300993 heartbeat IPC: 1.76927 cumulative IPC: 1.7969 (Simulation time: 0 hr 43 min 40 sec) 
Heartbeat CPU 0 instructions: 940000001 cycles: 369826150 heartbeat IPC: 1.8099 cumulative IPC: 1.79719 (Simulation time: 0 hr 44 min 10 sec) 
Heartbeat CPU 0 instructions: 950000003 cycles: 375352884 heartbeat IPC: 1.80939 cumulative IPC: 1.79746 (Simulation time: 0 hr 44 min 39 sec) 
Heartbeat CPU 0 instructions: 960000003 cycles: 381049938 heartbeat IPC: 1.75529 cumulative IPC: 1.79653 (Simulation time: 0 hr 45 min 9 sec) 
Heartbeat CPU 0 instructions: 970000001 cycles: 386577082 heartbeat IPC: 1.80925 cumulative IPC: 1.79679 (Simulation time: 0 hr 45 min 38 sec) 
Heartbeat CPU 0 instructions: 980000002 cycles: 392268553 heartbeat IPC: 1.75702 cumulative IPC: 1.79595 (Simulation time: 0 hr 46 min 8 sec) 
Heartbeat CPU 0 instructions: 990000004 cycles: 397772062 heartbeat IPC: 1.81702 cumulative IPC: 1.79637 (Simulation time: 0 hr 46 min 37 sec) 
Heartbeat CPU 0 instructions: 1000000000 cycles: 403444904 heartbeat IPC: 1.76278 cumulative IPC: 1.79569 (Simulation time: 0 hr 47 min 7 sec) 
Heartbeat CPU 0 instructions: 1010000002 cycles: 408959232 heartbeat IPC: 1.81346 cumulative IPC: 1.79603 (Simulation time: 0 hr 47 min 36 sec) 
Heartbeat CPU 0 instructions: 1020000004 cycles: 414732886 heartbeat IPC: 1.73201 cumulative IPC: 1.79476 (Simulation time: 0 hr 48 min 6 sec) 
Heartbeat CPU 0 instructions: 1030000001 cycles: 420235521 heartbeat IPC: 1.81731 cumulative IPC: 1.79518 (Simulation time: 0 hr 48 min 35 sec) 
Heartbeat CPU 0 instructions: 1040000003 cycles: 426024511 heartbeat IPC: 1.72742 cumulative IPC: 1.79387 (Simulation time: 0 hr 49 min 5 sec) 
Heartbeat CPU 0 instructions: 1050000004 cycles: 431670713 heartbeat IPC: 1.7711 cumulative IPC: 1.79346 (Simulation time: 0 hr 49 min 34 sec) 
Heartbeat CPU 0 instructions: 1060000002 cycles: 437196678 heartbeat IPC: 1.80964 cumulative IPC: 1.79374 (Simulation time: 0 hr 50 min 4 sec) 
Heartbeat CPU 0 instructions: 1070000004 cycles: 442893625 heartbeat IPC: 1.75533 cumulative IPC: 1.79305 (Simulation time: 0 hr 50 min 33 sec) 
Heartbeat CPU 0 instructions: 1080000000 cycles: 448420470 heartbeat IPC: 1.80935 cumulative IPC: 1.79333 (Simulation time: 0 hr 51 min 3 sec) 
Heartbeat CPU 0 instructions: 1090000004 cycles: 453922578 heartbeat IPC: 1.81749 cumulative IPC: 1.79374 (Simulation time: 0 hr 51 min 32 sec) 
Heartbeat CPU 0 instructions: 1100000004 cycles: 459614796 heartbeat IPC: 1.75678 cumulative IPC: 1.79311 (Simulation time: 0 hr 52 min 1 sec) 
Heartbeat CPU 0 instructions: 1110000003 cycles: 465119745 heartbeat IPC: 1.81655 cumulative IPC: 1.79349 (Simulation time: 0 hr 52 min 31 sec) 
Heartbeat CPU 0 instructions: 1120000004 cycles: 470700033 heartbeat IPC: 1.79202 cumulative IPC: 1.79346 (Simulation time: 0 hr 53 min 0 sec) 
Heartbeat CPU 0 instructions: 1130000000 cycles: 476203143 heartbeat IPC: 1.81715 cumulative IPC: 1.79383 (Simulation time: 0 hr 53 min 30 sec) 
Heartbeat CPU 0 instructions: 1140000002 cycles: 481728804 heartbeat IPC: 1.80974 cumulative IPC: 1.79408 (Simulation time: 0 hr 53 min 59 sec) 
Heartbeat CPU 0 instructions: 1150000003 cycles: 487289304 heartbeat IPC: 1.7984 cumulative IPC: 1.79415 (Simulation time: 0 hr 54 min 29 sec) 
Heartbeat CPU 0 instructions: 1160000001 cycles: 493028922 heartbeat IPC: 1.74228 cumulative IPC: 1.79334 (Simulation time: 0 hr 54 min 59 sec) 
Heartbeat CPU 0 instructions: 1170000000 cycles: 498532060 heartbeat IPC: 1.81714 cumulative IPC: 1.79369 (Simulation time: 0 hr 55 min 28 sec) 
Heartbeat CPU 0 instructions: 1180000000 cycles: 504422371 heartbeat IPC: 1.6977 cumulative IPC: 1.7922 (Simulation time: 0 hr 55 min 58 sec) 
Heartbeat CPU 0 instructions: 1190000002 cycles: 509926430 heartbeat IPC: 1.81684 cumulative IPC: 1.79255 (Simulation time: 0 hr 56 min 28 sec) 
Heartbeat CPU 0 instructions: 1200000000 cycles: 515523551 heartbeat IPC: 1.78663 cumulative IPC: 1.79247 (Simulation time: 0 hr 56 min 58 sec) 
Heartbeat CPU 0 instructions: 1210000002 cycles: 521205071 heartbeat IPC: 1.76009 cumulative IPC: 1.792 (Simulation time: 0 hr 57 min 27 sec) 
Heartbeat CPU 0 instructions: 1220000000 cycles: 526906553 heartbeat IPC: 1.75393 cumulative IPC: 1.79146 (Simulation time: 0 hr 57 min 57 sec) 
Heartbeat CPU 0 instructions: 1230000000 cycles: 532530706 heartbeat IPC: 1.77805 cumulative IPC: 1.79128 (Simulation time: 0 hr 58 min 26 sec) 
Heartbeat CPU 0 instructions: 1240000002 cycles: 538058368 heartbeat IPC: 1.80908 cumulative IPC: 1.79151 (Simulation time: 0 hr 58 min 56 sec) 
Heartbeat CPU 0 instructions: 1250000001 cycles: 543679491 heartbeat IPC: 1.779 cumulative IPC: 1.79135 (Simulation time: 0 hr 59 min 26 sec) 
Heartbeat CPU 0 instructions: 1260000001 cycles: 549326885 heartbeat IPC: 1.77073 cumulative IPC: 1.79107 (Simulation time: 0 hr 59 min 56 sec) 
Heartbeat CPU 0 instructions: 1270000000 cycles: 554887634 heartbeat IPC: 1.79832 cumulative IPC: 1.79117 (Simulation time: 1 hr 0 min 26 sec) 
Heartbeat CPU 0 instructions: 1280000002 cycles: 560414398 heartbeat IPC: 1.80938 cumulative IPC: 1.7914 (Simulation time: 1 hr 0 min 55 sec) 
Heartbeat CPU 0 instructions: 1290000001 cycles: 565924321 heartbeat IPC: 1.81491 cumulative IPC: 1.79169 (Simulation time: 1 hr 1 min 25 sec) 
Heartbeat CPU 0 instructions: 1300000001 cycles: 571453085 heartbeat IPC: 1.80872 cumulative IPC: 1.7919 (Simulation time: 1 hr 1 min 55 sec) 
Heartbeat CPU 0 instructions: 1310000000 cycles: 576956990 heartbeat IPC: 1.81689 cumulative IPC: 1.79221 (Simulation time: 1 hr 2 min 25 sec) 
Heartbeat CPU 0 instructions: 1320000001 cycles: 582484582 heartbeat IPC: 1.80911 cumulative IPC: 1.79241 (Simulation time: 1 hr 2 min 55 sec) 
Heartbeat CPU 0 instructions: 1330000000 cycles: 588013549 heartbeat IPC: 1.80866 cumulative IPC: 1.7926 (Simulation time: 1 hr 3 min 25 sec) 
Heartbeat CPU 0 instructions: 1340000004 cycles: 593519096 heartbeat IPC: 1.81635 cumulative IPC: 1.79288 (Simulation time: 1 hr 3 min 54 sec) 
Heartbeat CPU 0 instructions: 1350000003 cycles: 599048336 heartbeat IPC: 1.80857 cumulative IPC: 1.79307 (Simulation time: 1 hr 4 min 24 sec) 
Heartbeat CPU 0 instructions: 1360000001 cycles: 604551227 heartbeat IPC: 1.81723 cumulative IPC: 1.79334 (Simulation time: 1 hr 4 min 55 sec) 
Heartbeat CPU 0 instructions: 1370000001 cycles: 610074439 heartbeat IPC: 1.81054 cumulative IPC: 1.79354 (Simulation time: 1 hr 5 min 25 sec) 
Heartbeat CPU 0 instructions: 1380000004 cycles: 615598390 heartbeat IPC: 1.8103 cumulative IPC: 1.79373 (Simulation time: 1 hr 5 min 56 sec) 
Heartbeat CPU 0 instructions: 1390000002 cycles: 621098155 heartbeat IPC: 1.81826 cumulative IPC: 1.794 (Simulation time: 1 hr 6 min 26 sec) 
Heartbeat CPU 0 instructions: 1400000000 cycles: 626621434 heartbeat IPC: 1.81052 cumulative IPC: 1.79418 (Simulation time: 1 hr 6 min 57 sec) 
Heartbeat CPU 0 instructions: 1410000004 cycles: 632126896 heartbeat IPC: 1.81638 cumulative IPC: 1.79442 (Simulation time: 1 hr 7 min 26 sec) 
Heartbeat CPU 0 instructions: 1420000000 cycles: 637650236 heartbeat IPC: 1.8105 cumulative IPC: 1.7946 (Simulation time: 1 hr 7 min 56 sec) 
Heartbeat CPU 0 instructions: 1430000004 cycles: 643175250 heartbeat IPC: 1.80995 cumulative IPC: 1.79476 (Simulation time: 1 hr 8 min 26 sec) 
Heartbeat CPU 0 instructions: 1440000001 cycles: 648676229 heartbeat IPC: 1.81786 cumulative IPC: 1.795 (Simulation time: 1 hr 8 min 55 sec) 
Heartbeat CPU 0 instructions: 1450000001 cycles: 654199829 heartbeat IPC: 1.81041 cumulative IPC: 1.79516 (Simulation time: 1 hr 9 min 25 sec) 
Heartbeat CPU 0 instructions: 1460000003 cycles: 659932307 heartbeat IPC: 1.74445 cumulative IPC: 1.79462 (Simulation time: 1 hr 10 min 4 sec) 
Heartbeat CPU 0 instructions: 1470000004 cycles: 665455803 heartbeat IPC: 1.81045 cumulative IPC: 1.79478 (Simulation time: 1 hr 10 min 33 sec) 
Heartbeat CPU 0 instructions: 1480000004 cycles: 670956434 heartbeat IPC: 1.81797 cumulative IPC: 1.79502 (Simulation time: 1 hr 11 min 3 sec) 
Heartbeat CPU 0 instructions: 1490000002 cycles: 676486257 heartbeat IPC: 1.80838 cumulative IPC: 1.79515 (Simulation time: 1 hr 11 min 33 sec) 
Heartbeat CPU 0 instructions: 1500000000 cycles: 682007768 heartbeat IPC: 1.8111 cumulative IPC: 1.79531 (Simulation time: 1 hr 12 min 2 sec) 
Heartbeat CPU 0 instructions: 1510000002 cycles: 687510790 heartbeat IPC: 1.81718 cumulative IPC: 1.79552 (Simulation time: 1 hr 12 min 32 sec) 
Heartbeat CPU 0 instructions: 1520000000 cycles: 693040026 heartbeat IPC: 1.80857 cumulative IPC: 1.79565 (Simulation time: 1 hr 13 min 2 sec) 
Heartbeat CPU 0 instructions: 1530000001 cycles: 698543194 heartbeat IPC: 1.81714 cumulative IPC: 1.79585 (Simulation time: 1 hr 13 min 31 sec) 
Heartbeat CPU 0 instructions: 1540000000 cycles: 704070988 heartbeat IPC: 1.80904 cumulative IPC: 1.79598 (Simulation time: 1 hr 14 min 1 sec) 
Heartbeat CPU 0 instructions: 1550000004 cycles: 709574290 heartbeat IPC: 1.81709 cumulative IPC: 1.79618 (Simulation time: 1 hr 14 min 31 sec) 
Heartbeat CPU 0 instructions: 1560000003 cycles: 715098483 heartbeat IPC: 1.81022 cumulative IPC: 1.79631 (Simulation time: 1 hr 15 min 0 sec) 
Heartbeat CPU 0 instructions: 1570000000 cycles: 720627478 heartbeat IPC: 1.80865 cumulative IPC: 1.79643 (Simulation time: 1 hr 15 min 30 sec) 
Heartbeat CPU 0 instructions: 1580000000 cycles: 726130712 heartbeat IPC: 1.81711 cumulative IPC: 1.79661 (Simulation time: 1 hr 15 min 59 sec) 
Heartbeat CPU 0 instructions: 1590000003 cycles: 731656341 heartbeat IPC: 1.80975 cumulative IPC: 1.79673 (Simulation time: 1 hr 16 min 28 sec) 
Heartbeat CPU 0 instructions: 1600000003 cycles: 737161611 heartbeat IPC: 1.81644 cumulative IPC: 1.79691 (Simulation time: 1 hr 16 min 58 sec) 
Heartbeat CPU 0 instructions: 1610000002 cycles: 742689562 heartbeat IPC: 1.80899 cumulative IPC: 1.79702 (Simulation time: 1 hr 17 min 28 sec) 
Heartbeat CPU 0 instructions: 1620000002 cycles: 748194815 heartbeat IPC: 1.81645 cumulative IPC: 1.79719 (Simulation time: 1 hr 17 min 57 sec) 
Heartbeat CPU 0 instructions: 1630000003 cycles: 753718991 heartbeat IPC: 1.81022 cumulative IPC: 1.79731 (Simulation time: 1 hr 18 min 27 sec) 
Heartbeat CPU 0 instructions: 1640000000 cycles: 759247611 heartbeat IPC: 1.80877 cumulative IPC: 1.79741 (Simulation time: 1 hr 18 min 57 sec) 
Heartbeat CPU 0 instructions: 1650000000 cycles: 764751115 heartbeat IPC: 1.81702 cumulative IPC: 1.79757 (Simulation time: 1 hr 19 min 27 sec) 
Heartbeat CPU 0 instructions: 1660000001 cycles: 770281352 heartbeat IPC: 1.80824 cumulative IPC: 1.79767 (Simulation time: 1 hr 19 min 56 sec) 
Heartbeat CPU 0 instructions: 1670000002 cycles: 775788538 heartbeat IPC: 1.81581 cumulative IPC: 1.79782 (Simulation time: 1 hr 20 min 25 sec) 
Heartbeat CPU 0 instructions: 1680000004 cycles: 781314901 heartbeat IPC: 1.80951 cumulative IPC: 1.79792 (Simulation time: 1 hr 20 min 55 sec) 
Heartbeat CPU 0 instructions: 1690000003 cycles: 786826372 heartbeat IPC: 1.8144 cumulative IPC: 1.79806 (Simulation time: 1 hr 21 min 25 sec) 
Heartbeat CPU 0 instructions: 1700000001 cycles: 792447782 heartbeat IPC: 1.77891 cumulative IPC: 1.79789 (Simulation time: 1 hr 21 min 55 sec) 
Heartbeat CPU 0 instructions: 1710000002 cycles: 797955479 heartbeat IPC: 1.81564 cumulative IPC: 1.79804 (Simulation time: 1 hr 22 min 24 sec) 
Heartbeat CPU 0 instructions: 1720000002 cycles: 803713764 heartbeat IPC: 1.73663 cumulative IPC: 1.79752 (Simulation time: 1 hr 22 min 54 sec) 
Heartbeat CPU 0 instructions: 1730000001 cycles: 809533980 heartbeat IPC: 1.71815 cumulative IPC: 1.79684 (Simulation time: 1 hr 23 min 23 sec) 
Heartbeat CPU 0 instructions: 1740000000 cycles: 815041359 heartbeat IPC: 1.81575 cumulative IPC: 1.79699 (Simulation time: 1 hr 23 min 53 sec) 
Heartbeat CPU 0 instructions: 1750000002 cycles: 820842813 heartbeat IPC: 1.72371 cumulative IPC: 1.79638 (Simulation time: 1 hr 24 min 23 sec) 
Heartbeat CPU 0 instructions: 1760000002 cycles: 826345349 heartbeat IPC: 1.81734 cumulative IPC: 1.79655 (Simulation time: 1 hr 24 min 53 sec) 
Heartbeat CPU 0 instructions: 1770000001 cycles: 831875281 heartbeat IPC: 1.80834 cumulative IPC: 1.79664 (Simulation time: 1 hr 25 min 22 sec) 
Heartbeat CPU 0 instructions: 1780000001 cycles: 837496493 heartbeat IPC: 1.77898 cumulative IPC: 1.7965 (Simulation time: 1 hr 25 min 52 sec) 
Heartbeat CPU 0 instructions: 1790000000 cycles: 843259095 heartbeat IPC: 1.73533 cumulative IPC: 1.79601 (Simulation time: 1 hr 26 min 21 sec) 
Heartbeat CPU 0 instructions: 1800000002 cycles: 848794282 heartbeat IPC: 1.80662 cumulative IPC: 1.79609 (Simulation time: 1 hr 26 min 51 sec) 
Heartbeat CPU 0 instructions: 1810000002 cycles: 854401359 heartbeat IPC: 1.78346 cumulative IPC: 1.79599 (Simulation time: 1 hr 27 min 22 sec) 
Heartbeat CPU 0 instructions: 1820000003 cycles: 860013654 heartbeat IPC: 1.7818 cumulative IPC: 1.79589 (Simulation time: 1 hr 27 min 52 sec) 
Heartbeat CPU 0 instructions: 1830000004 cycles: 865541418 heartbeat IPC: 1.80905 cumulative IPC: 1.79598 (Simulation time: 1 hr 28 min 23 sec) 
Heartbeat CPU 0 instructions: 1840000000 cycles: 871045458 heartbeat IPC: 1.81685 cumulative IPC: 1.79614 (Simulation time: 1 hr 28 min 54 sec) 
Heartbeat CPU 0 instructions: 1850000003 cycles: 876830086 heartbeat IPC: 1.72872 cumulative IPC: 1.79562 (Simulation time: 1 hr 29 min 23 sec) 
Heartbeat CPU 0 instructions: 1860000001 cycles: 882357243 heartbeat IPC: 1.80925 cumulative IPC: 1.79572 (Simulation time: 1 hr 29 min 53 sec) 
Heartbeat CPU 0 instructions: 1870000003 cycles: 887884070 heartbeat IPC: 1.80936 cumulative IPC: 1.79582 (Simulation time: 1 hr 30 min 22 sec) 
Heartbeat CPU 0 instructions: 1880000003 cycles: 893668148 heartbeat IPC: 1.72888 cumulative IPC: 1.79531 (Simulation time: 1 hr 30 min 51 sec) 
Heartbeat CPU 0 instructions: 1890000004 cycles: 899850520 heartbeat IPC: 1.6175 cumulative IPC: 1.79389 (Simulation time: 1 hr 31 min 21 sec) 
Heartbeat CPU 0 instructions: 1900000002 cycles: 905567423 heartbeat IPC: 1.7492 cumulative IPC: 1.79357 (Simulation time: 1 hr 31 min 51 sec) 
Heartbeat CPU 0 instructions: 1910000000 cycles: 911351571 heartbeat IPC: 1.72886 cumulative IPC: 1.79309 (Simulation time: 1 hr 32 min 20 sec) 
Heartbeat CPU 0 instructions: 1920000003 cycles: 916879283 heartbeat IPC: 1.80907 cumulative IPC: 1.7932 (Simulation time: 1 hr 32 min 50 sec) 
Heartbeat CPU 0 instructions: 1930000001 cycles: 922381704 heartbeat IPC: 1.81738 cumulative IPC: 1.79337 (Simulation time: 1 hr 33 min 19 sec) 
Heartbeat CPU 0 instructions: 1940000003 cycles: 928167496 heartbeat IPC: 1.72837 cumulative IPC: 1.7929 (Simulation time: 1 hr 33 min 48 sec) 
Heartbeat CPU 0 instructions: 1950000003 cycles: 933694320 heartbeat IPC: 1.80936 cumulative IPC: 1.79301 (Simulation time: 1 hr 34 min 18 sec) 
Heartbeat CPU 0 instructions: 1960000003 cycles: 939220658 heartbeat IPC: 1.80952 cumulative IPC: 1.79313 (Simulation time: 1 hr 34 min 47 sec) 
Heartbeat CPU 0 instructions: 1970000001 cycles: 944913129 heartbeat IPC: 1.75671 cumulative IPC: 1.79287 (Simulation time: 1 hr 35 min 17 sec) 
Heartbeat CPU 0 instructions: 1980000001 cycles: 950446877 heartbeat IPC: 1.80709 cumulative IPC: 1.79297 (Simulation time: 1 hr 35 min 46 sec) 
Heartbeat CPU 0 instructions: 1990000001 cycles: 956254938 heartbeat IPC: 1.72175 cumulative IPC: 1.79247 (Simulation time: 1 hr 36 min 16 sec) 
*** Reached end of trace: traces/410.bwaves-945B.champsimtrace.xz
Heartbeat CPU 0 instructions: 2000000000 cycles: 961921021 heartbeat IPC: 1.76489 cumulative IPC: 1.79228 (Simulation time: 1 hr 36 min 46 sec) 
Finished CPU 0 instructions: 1500000003 cycles: 836920886 cumulative IPC: 1.79228 (Simulation time: 1 hr 36 min 46 sec) 

ChampSim completed all CPUs

Region of Interest Statistics

CPU 0 cumulative IPC: 1.79228 instructions: 1500000003 cycles: 836920886
cpu0_DTLB TOTAL     ACCESS:  263043117  HIT:  263042235  MISS:        882
cpu0_DTLB LOAD      ACCESS:  139811461  HIT:  139811368  MISS:         93
cpu0_DTLB RFO       ACCESS:  123231656  HIT:  123230867  MISS:        789
cpu0_DTLB PREFETCH  ACCESS:          0  HIT:          0  MISS:          0
cpu0_DTLB WRITEBACK ACCESS:          0  HIT:          0  MISS:          0
cpu0_DTLB TRANSLATION ACCESS:          0  HIT:          0  MISS:          0
cpu0_DTLB PREFETCH  REQUESTED:          0  ISSUED:          0  USEFUL:          0  USELESS:          0
cpu0_DTLB AVERAGE MISS LATENCY: 213.231 cycles
cpu0_ITLB TOTAL     ACCESS:  148219447  HIT:  148219446  MISS:          1
cpu0_ITLB LOAD      ACCESS:  148219447  HIT:  148219446  MISS:          1
cpu0_ITLB RFO       ACCESS:          0  HIT:          0  MISS:          0
cpu0_ITLB PREFETCH  ACCESS:          0  HIT:          0  MISS:          0
cpu0_ITLB WRITEBACK ACCESS:          0  HIT:          0  MISS:          0
cpu0_ITLB TRANSLATION ACCESS:          0  HIT:          0  MISS:          0
cpu0_ITLB PREFETCH  REQUESTED:          0  ISSUED:          0  USEFUL:          0  USELESS:          0
cpu0_ITLB AVERAGE MISS LATENCY: 249 cycles
cpu0_L1I TOTAL     ACCESS:    5166501  HIT:    5166479  MISS:         22
cpu0_L1I LOAD      ACCESS:    5166501  HIT:    5166479  MISS:         22
cpu0_L1I RFO       ACCESS:          0  HIT:          0  MISS:          0
cpu0_L1I PREFETCH  ACCESS:          0  HIT:          0  MISS:          0
cpu0_L1I WRITEBACK ACCESS:          0  HIT:          0  MISS:          0
cpu0_L1I TRANSLATION ACCESS:          0  HIT:          0  MISS:          0
cpu0_L1I PREFETCH  REQUESTED:          0  ISSUED:          0  USEFUL:          0  USELESS:          0
cpu0_L1I AVERAGE MISS LATENCY: 172.727 cycles
cpu0_STLB TOTAL     ACCESS:        883  HIT:         20  MISS:        863
cpu0_STLB LOAD      ACCESS:         94  HIT:         13  MISS:         81
cpu0_STLB RFO       ACCESS:        789  HIT:          7  MISS:        782
cpu0_STLB PREFETCH  ACCESS:          0  HIT:          0  MISS:          0
cpu0_STLB WRITEBACK ACCESS:          0  HIT:          0  MISS:          0
cpu0_STLB TRANSLATION ACCESS:          0  HIT:          0  MISS:          0
cpu0_STLB PREFETCH  REQUESTED:          0  ISSUED:          0  USEFUL:          0  USELESS:          0
cpu0_STLB AVERAGE MISS LATENCY: 209.006 cycles
cpu0_L1D TOTAL     ACCESS:  223840401  HIT:  223784637  MISS:      55764
cpu0_L1D LOAD      ACCESS:  132290140  HIT:  132284818  MISS:       5322
cpu0_L1D RFO       ACCESS:   91549398  HIT:   91499033  MISS:      50365
cpu0_L1D PREFETCH  ACCESS:          0  HIT:          0  MISS:          0
cpu0_L1D WRITEBACK ACCESS:          0  HIT:          0  MISS:          0
cpu0_L1D TRANSLATION ACCESS:        863  HIT:        786  MISS:         77
cpu0_L1D PREFETCH  REQUESTED:          0  ISSUED:          0  USEFUL:          0  USELESS:          0
cpu0_L1D AVERAGE MISS LATENCY: 233.176 cycles
cpu0_L2C TOTAL     ACCESS:     106227  HIT:      50582  MISS:      55645
cpu0_L2C LOAD      ACCESS:       5344  HIT:        174  MISS:       5170
cpu0_L2C RFO       ACCESS:      50365  HIT:         92  MISS:      50273
cpu0_L2C PREFETCH  ACCESS:          0  HIT:          0  MISS:          0
cpu0_L2C WRITEBACK ACCESS:      50441  HIT:      50240  MISS:        201
cpu0_L2C TRANSLATION ACCESS:         77  HIT:         76  MISS:          1
cpu0_L2C PREFETCH  REQUESTED:          0  ISSUED:          0  USEFUL:          0  USELESS:          0
cpu0_L2C AVERAGE MISS LATENCY: 222.714 cycles
LLC TOTAL     ACCESS:     105763  HIT:      50531  MISS:      55232
LLC LOAD      ACCESS:       5170  HIT:         78  MISS:       5092
LLC RFO       ACCESS:      50273  HIT:        139  MISS:      50134
LLC PREFETCH  ACCESS:          0  HIT:          0  MISS:          0
LLC WRITEBACK ACCESS:      50319  HIT:      50313  MISS:          6
LLC TRANSLATION ACCESS:          1  HIT:          1  MISS:          0
LLC PREFETCH  REQUESTED:          0  ISSUED:          0  USEFUL:          0  USELESS:          0
LLC AVERAGE MISS LATENCY: 203.299 cycles
~~~~~~~~~~Reuse Distance Profiler output~~~~~~~~~~
0	65491632	10831024
1	73854256	35384448
2	79443168	52660736
3	28705408	15690768
4	17141488	12561728
5	4484656	3987856
6	3046416	2959552
7	3699120	3640208
8	3732256	3699072
9	2969248	2933088
10	3204352	3190352
11	3176336	3130736
12	2230960	2214784
13	2124960	2103296
14	1342576	1339536
15	1318064	1312928
16	1216464	1210560
17	1044000	1041536
18	946656	917728
19	858208	846272
20	1403920	1393904
21	1183600	1170864
22	1525616	1517040
23	1043216	1029040
24	1323824	1318752
25	1164688	1154016
26	918816	910944
27	1034320	1025728
28	1147200	1132896
29	1213872	1196480
30	1299344	1294176
31	1521312	1499376
32	1096160	1092192
33	1336464	1332672
34	1071120	1065856
35	1163440	1156720
36	1054032	1042720
37	1036400	990144
38	1096192	1037776
39	1229568	1224784
40	1431504	1413776
41	1049200	1032080
42	759856	742656
43	735552	715280
44	585248	555808
45	514112	510480
46	431968	418432
47	364992	346864
48	301008	287968
49	375568	312880
50	276576	257120
51	272848	253296
52	294880	268768
53	282960	269472
54	289856	274000
55	267968	258848
56	246224	240464
57	232608	216144
58	181136	163184
59	249360	226304
60	238816	230032
61	189216	174688
62	218096	210720
63	195456	184512
64	458896	426864
66	482976	423600
68	457584	424432
70	333120	316480
72	276512	256352
74	283744	269376
76	291696	246928
78	252368	225760
80	204768	192832
82	185136	161680
84	165200	143776
86	151488	145184
88	112528	104800
90	83152	75600
92	68176	63264
94	51600	44688
96	38096	30720
98	28624	20448
100	61952	56000
102	35888	33024
104	29632	28480
106	14656	11072
108	13200	10720
110	32512	29264
112	21024	18144
114	22208	20384
116	29024	25344
118	30560	20336
120	34320	25504
122	47760	31344
124	39328	33760
126	28528	25184
128	58304	31984
132	49216	33056
136	65024	49120
140	49504	44320
144	96240	84800
148	33616	30784
152	132656	123360
156	74432	57696
160	117120	102384
164	42560	36384
168	42816	24832
172	59536	47728
176	34544	27248
180	25344	13568
184	28448	14160
188	27456	20960
192	29968	26032
196	36000	33280
200	17056	13232
204	52976	11408
208	35296	18640
212	24304	12992
216	32416	14272
220	20592	12112
224	16576	9792
228	23200	18272
232	20032	16528
236	23344	17760
240	26048	18000
244	35984	23936
248	29680	16336
252	20976	6752
256	35728	14736
264	43168	28112
272	30256	23664
280	37520	33280
288	11712	7680
296	27168	16640
304	27744	13232
312	26416	22576
320	8624	6544
328	6224	3168
336	23920	1936
344	39248	3552
352	28560	7184
360	11120	4160
368	79264	68208
376	51376	40912
384	22752	19712
392	23856	19072
400	11728	9264
408	38624	3968
416	14176	8800
424	24960	8256
432	32864	19744
440	25376	9808
448	11600	1216
456	18512	6816
464	21264	16896
472	17136	14640
480	11840	8496
488	15936	12880
496	12896	11472
504	11824	10480
512	50096	47328
528	43056	30976
544	16672	12688
560	15568	7552
576	19872	16368
592	10096	7408
608	11584	7104
624	31072	80
640	85888	5216
656	69072	61024
672	61792	36352
688	78656	14816
704	74048	12720
720	21024	3632
736	9840	1216
752	8416	112
768	23600	1200
784	23984	8384
800	40816	9136
816	24592	12400
832	66544	35008
848	39808	27920
864	73600	6448
880	82816	25856
896	111616	72016
912	58544	46080
928	88848	63776
944	25072	16848
960	40688	32768
976	27968	19904
992	127264	50896
1008	48832	19008
1024	63632	26512
1056	48560	28096
1088	69904	15232
1120	75232	19728
1152	64720	2784
1184	50736	25200
1216	67808	32848
1248	47184	2864
1280	58688	20032
1312	20640	4368
1344	31008	26928
1376	25712	17648
1408	72672	29440
1440	16928	9664
1472	41344	20112
1504	23552	12064
1536	48608	32208
1568	56416	33488
1600	52656	32032
1632	57904	30256
1664	48400	9808
1696	50656	8224
1728	32320	5776
1760	25984	9552
1792	28496	17264
1824	25632	14880
1856	51776	34784
1888	23984	14064
1920	36016	24768
1952	27408	9632
1984	20320	7264
2016	10720	3312
2048	145376	39888
2112	124512	59808
2176	178288	160032
2240	95408	75728
2304	16064	736
2368	11184	512
2432	22704	3728
2496	17440	9968
2560	5088	4112
2624	14000	832
2688	4448	1008
2752	12496	528
2816	9248	848
2880	17328	224
2944	6688	736
3008	5728	5024
3072	7072	6720
3136	20048	6544
3200	21488	9808
3264	12048	10800
3328	7952	6928
3392	9776	8480
3456	20496	12400
3520	31840	12832
3584	49152	30928
3648	38304	31152
3712	25776	19408
3776	14752	11216
3840	3728	2288
3904	7280	3872
3968	5776	4416
4032	5648	3808
4096	3072	256
4224	15184	48
4352	41952	41072
4480	7968	6304
4608	2304	64
4736	3248	16
4864	960	32
4992	160	80
5120	1248	432
5248	7664	2688
5376	7312	5376
5504	3456	3184
5632	5200	2400
5760	3440	2576
5888	5488	3056
6016	7424	5680
6144	14480	7216
6272	5200	2960
6400	4688	2624
6528	3152	2304
6656	2208	944
6784	1712	432
6912	2032	928
7040	2208	704
7168	8176	5936
7296	11248	8384
7424	3616	2160
7552	3968	2704
7680	1216	304
7808	976	320
7936	1344	576
8064	1792	464
8192	4528	528
8448	3264	192
8704	21776	20720
8960	30592	29664
9216	21376	20512
9472	11728	7664
9728	24544	13072
9984	42896	21536
10240	48576	19920
10496	31648	11360
10752	64704	41632
11008	77136	55024
11264	33280	31632
11520	672	16
11776	1344	0
12032	688	16
12288	2672	1424
12544	3472	1040
12800	848	144
13056	1456	304
13312	480	176
13568	656	48
13824	352	0
14080	400	16
14336	1008	480
14592	8976	8640
14848	8912	7712
15104	4624	4176
15360	4528	4192
15616	2208	1840
15872	720	432
16128	2336	896
16384	18432	9568
16896	15232	6848
17408	11424	4096
17920	38256	24384
18432	20416	14848
18944	17168	12896
19456	4752	2592
19968	3120	1632
20480	1184	400
20992	624	128
21504	640	144
22016	1968	752
22528	2480	880
23040	3488	672
23552	2176	688
24064	960	496
24576	944	608
25088	2304	1408
25600	416	96
26112	256	48
26624	112	48
27136	64	16
27648	64	0
28160	288	48
28672	2816	880
29184	2352	48
29696	2032	16
30208	2016	224
30720	1152	144
31232	2528	192
31744	3232	176
32256	6288	288
32768	9392	832
33792	7696	1760
34816	7376	1632
35840	5152	864
36864	5648	1008
37888	4624	1088
38912	2336	1168
39936	5232	2240
40960	2864	1328
41984	1616	720
43008	2272	912
44032	2608	928
45056	2352	864
46080	896	272
47104	560	16
48128	448	32
49152	800	112
50176	656	48
51200	768	0
52224	1888	512
53248	1328	608
54272	1648	288
55296	2320	448
56320	2080	400
57344	1904	400
58368	2864	448
59392	1808	400
60416	1200	192
61440	1488	448
62464	1184	80
63488	1248	368
64512	1248	336
65536	1120	432
67584	1104	464
69632	1408	752
71680	1152	256
73728	704	304
75776	1152	400
77824	512	192
79872	192	64
81920	80	48
83968	144	112
86016	112	80
88064	272	208
90112	128	96
92160	176	80
94208	224	80
96256	464	224
98304	96	48
100352	32	0
102400	16	0
104448	16	16
106496	20256	11632
108544	11184	5376
110592	11040	6736
112640	5632	4224
114688	592	128
116736	432	64
118784	608	0
120832	352	0
122880	272	16
124928	288	16
126976	912	480
129024	944	288
131072	1120	336
135168	336	208
139264	1424	0
143360	1088	112
147456	1056	32
151552	848	64
155648	416	0
159744	960	16
163840	512	64
167936	496	64
172032	336	48
176128	2720	1040
180224	6416	4288
184320	5008	3072
188416	1728	1200
192512	272	32
196608	80	0
200704	352	48
204800	256	144
208896	512	240
212992	272	48
217088	80	32
221184	64	16
225280	32	0
229376	16	0
233472	48	16
237568	256	0
241664	176	16
245760	480	0
249856	176	32
253952	304	0
258048	304	16
262144	272	16
270336	416	0
278528	96	0
286720	160	0
294912	80	48
303104	32	16
311296	16	0
319488	16	0
327680	48	0
335872	0	0
344064	32	32
352256	16	0
360448	80	32
368640	16	0
376832	32	0
385024	32	0
393216	32	16
401408	16	0
409600	0	0
417792	16	0
425984	1152	1152
434176	880	176
442368	656	416
450560	672	336
458752	336	0
466944	32	0
475136	0	0
483328	16	0
491520	0	0
499712	0	0
507904	0	0
516096	16	0
524288	64	48
540672	1360	608
557056	11136	7952
573440	6592	4720
589824	784	528
606208	48	32
622592	16	0
638976	32	16
655360	16	16
671744	16	0
688128	96	48
704512	16	16
720896	864	688
737280	304	192
753664	304	112
770048	80	64
786432	16	0
802816	16	0
819200	16	16
835584	32	0
851968	0	0
868352	32	16
884736	16	0
901120	224	144
917504	1600	1120
933888	2336	1584
950272	1040	768
966656	1392	1072
983040	48	48
999424	16	16
1015808	16	16
1032192	0	0
1048576	64	32
1081344	32	16
1114112	240	224
1146880	208	160
1179648	32	16
1212416	16	16
1245184	0	0
1277952	32	32
1310720	48	48
1343488	16	16
1376256	0	0
1409024	0	0
1441792	0	0
1474560	0	0
1507328	0	0
1540096	0	0
1572864	0	0
1605632	0	0
1638400	16	0
1671168	0	0
1703936	0	0
1736704	0	0
1769472	0	0
1802240	48	48
1835008	0	0
1867776	144	144
1900544	48	48
1933312	0	0
1966080	16	16
1998848	16	16
2031616	0	0
2064384	48	48
2097152	160	160
2162688	0	0
2228224	16	16
2293760	16	16
2359296	144	144
2424832	256	256
2490368	144	144
2555904	0	0
2621440	0	0
2686976	0	0
2752512	0	0
2818048	16	16
2883584	48	48
2949120	304	304
3014656	0	0
3080192	128	128
3145728	16	16
3211264	0	0
3276800	0	0
3342336	32	32
3407872	48	48
3473408	0	0
3538944	144	144
3604480	0	0
3670016	48	48
3735552	32	32
3801088	0	0
3866624	16	16
3932160	64	64
3997696	96	96
4063232	64	64
4128768	112	112
4194304	112	112
4325376	0	0
4456448	16	16
4587520	192	192
4718592	128	128
4849664	16	16
4980736	64	64
5111808	0	0
5242880	0	0
5373952	32	32
5505024	0	0
5636096	64	64
5767168	96	96
5898240	0	0
6029312	0	0
6160384	64	64
6291456	48	48
6422528	0	0
6553600	16	16
6684672	64	64
6815744	32	32
6946816	32	32
7077888	16	16
7208960	32	32
7340032	32	32
7471104	16	16
7602176	16	16
7733248	32	32
7864320	16	16
7995392	0	0
8126464	0	0
8257536	0	0
8388608	96	96
8650752	16	16
8912896	0	0
9175040	32	32
9437184	64	64
9699328	0	0
9961472	0	0
10223616	0	0
10485760	0	0
10747904	16	16
11010048	0	0
11272192	0	0
11534336	0	0
11796480	0	0
12058624	0	0
12320768	16	16
12582912	0	0
12845056	0	0
13107200	0	0
13369344	0	0
13631488	0	0
13893632	0	0
14155776	0	0
14417920	0	0
14680064	0	0
14942208	0	0
15204352	0	0
15466496	0	0
15728640	0	0
15990784	0	0
16252928	0	0
16515072	0	0
16777216	32	32
17301504	0	0
17825792	0	0
18350080	0	0
18874368	0	0
19398656	0	0
19922944	0	0
20447232	0	0
20971520	0	0
21495808	0	0
22020096	0	0
22544384	0	0
23068672	0	0
23592960	0	0
24117248	0	0
24641536	0	0
25165824	0	0
25690112	0	0
26214400	0	0
26738688	0	0
27262976	0	0
27787264	0	0
28311552	0	0
28835840	0	0
29360128	0	0
29884416	0	0
30408704	0	0
30932992	0	0
31457280	0	0
31981568	0	0
32505856	0	0
33030144	0	0
33554432	0	0
34603008	0	0
35651584	0	0
36700160	0	0
37748736	0	0
38797312	0	0
39845888	0	0
40894464	0	0
41943040	0	0
42991616	0	0
44040192	0	0
45088768	0	0
46137344	0	0
47185920	0	0
48234496	0	0
49283072	0	0
50331648	0	0
51380224	0	0
52428800	0	0
53477376	0	0
54525952	0	0
55574528	0	0
56623104	0	0
57671680	0	0
58720256	0	0
59768832	0	0
60817408	0	0
61865984	0	0
62914560	0	0
63963136	0	0
65011712	0	0
66060288	0	0
67108864	0	0
69206016	0	0
71303168	0	0
73400320	0	0
75497472	0	0
77594624	0	0
79691776	0	0
81788928	0	0
83886080	0	0
85983232	0	0
88080384	0	0
90177536	0	0
92274688	0	0
94371840	0	0
96468992	0	0
98566144	0	0
100663296	0	0
102760448	0	0
104857600	0	0
106954752	0	0
109051904	0	0
111149056	0	0
113246208	0	0
115343360	0	0
117440512	0	0
119537664	0	0
121634816	0	0
123731968	0	0
125829120	0	0
127926272	0	0
130023424	0	0
132120576	0	0
134217728	0	0
138412032	0	0
142606336	0	0
146800640	0	0
150994944	0	0
155189248	0	0
159383552	0	0
163577856	0	0
167772160	0	0
171966464	0	0
176160768	0	0
180355072	0	0
184549376	0	0
188743680	0	0
192937984	0	0
197132288	0	0
201326592	0	0
205520896	0	0
209715200	0	0
213909504	0	0
218103808	0	0
222298112	0	0
226492416	0	0
230686720	0	0
234881024	0	0
239075328	0	0
243269632	0	0
247463936	0	0
251658240	0	0
255852544	0	0
260046848	0	0
264241152	0	0
268435456	0	0
276824064	0	0
285212672	0	0
293601280	0	0
301989888	0	0
310378496	0	0
318767104	0	0
327155712	0	0
335544320	0	0
343932928	0	0
352321536	0	0
360710144	0	0
369098752	0	0
377487360	0	0
385875968	0	0
394264576	0	0
402653184	0	0
411041792	0	0
419430400	0	0
427819008	0	0
436207616	0	0
444596224	0	0
452984832	0	0
461373440	0	0
469762048	0	0
478150656	0	0
486539264	0	0
494927872	0	0
503316480	0	0
511705088	0	0
520093696	0	0
528482304	0	0
536870912	0	0
553648128	0	0
570425344	0	0
587202560	0	0
603979776	0	0
620756992	0	0
637534208	0	0
654311424	0	0
671088640	0	0
687865856	0	0
704643072	0	0
721420288	0	0
738197504	0	0
754974720	0	0
771751936	0	0
788529152	0	0
805306368	0	0
822083584	0	0
838860800	0	0
855638016	0	0
872415232	0	0
889192448	0	0
905969664	0	0
922746880	0	0
939524096	0	0
956301312	0	0
973078528	0	0
989855744	0	0
1006632960	0	0
1023410176	0	0
1040187392	0	0
1056964608	0	0
1073741824	0	0
1107296256	0	0
1140850688	0	0
1174405120	0	0
1207959552	0	0
1241513984	0	0
1275068416	0	0
1308622848	0	0
1342177280	0	0
1375731712	0	0
1409286144	0	0
1442840576	0	0
1476395008	0	0
1509949440	0	0
1543503872	0	0
1577058304	0	0
1610612736	0	0
1644167168	0	0
1677721600	0	0
1711276032	0	0
1744830464	0	0
1778384896	0	0
1811939328	0	0
1845493760	0	0
1879048192	0	0
1912602624	0	0
1946157056	0	0
1979711488	0	0
2013265920	0	0
2046820352	0	0
2080374784	0	0
2113929216	0	0
2147483648	0	0
2214592512	0	0
2281701376	0	0
2348810240	0	0
2415919104	0	0
2483027968	0	0
2550136832	0	0
2617245696	0	0
2684354560	0	0
2751463424	0	0
2818572288	0	0
2885681152	0	0
2952790016	0	0
3019898880	0	0
3087007744	0	0
3154116608	0	0
3221225472	0	0
3288334336	0	0
3355443200	0	0
3422552064	0	0
3489660928	0	0
3556769792	0	0
3623878656	0	0
3690987520	0	0
3758096384	0	0
3825205248	0	0
3892314112	0	0
3959422976	0	0
4026531840	0	0
4093640704	0	0
4160749568	0	0
4227858432	0	0
~~~~~~~~~~Reuse Distance Profiler output end~~~~~~~~~~

DRAM Statistics
 CHANNEL 0
 RQ ROW_BUFFER_HIT:         30  ROW_BUFFER_MISS:      55196
 DBUS AVG_CONGESTED_CYCLE:    3.79318
 WQ ROW_BUFFER_HIT:       5004  ROW_BUFFER_MISS:      27623  FULL:          0


CPU 0 Branch Prediction Accuracy: 89.2277% MPKI: 11.7882 Average ROB Occupancy at Mispredict: 100.636
Branch type MPKI
BRANCH_DIRECT_JUMP: 6.66667e-07
BRANCH_INDIRECT: 0
BRANCH_CONDITIONAL: 11.7882
BRANCH_DIRECT_CALL: 0
BRANCH_INDIRECT_CALL: 0
BRANCH_RETURN: 0

