
*** ChampSim Multicore Out-of-Order Simulator ***

Warmup Instructions: 500000000
Simulation Instructions: 1500000000
Number of CPUs: 1
Off-chip DRAM Size: 4 GiB Channels: 1 Width: 64-bit Data Rate: 3200 MT/s

VirtualMemory physical capacity: 8588881920 num_ppages: 2096895
VirtualMemory page size: 4096 log2_page_size: 12

CPU 0 runs traces/410.bwaves-2097B.champsimtrace.xz
CPU 0 Bimodal branch predictor
Basic BTB sets: 1024 ways: 8 indirect buffer size: 4096 RAS size: 64
Initializing LRU.
Initializing LRU.
Initializing LRU.
Initializing LRU.
Initializing rdLRU.
Initializing LRU.
Initializing LRU.
Heartbeat CPU 0 instructions: 10000001 cycles: 4406383 heartbeat IPC: 2.26944 cumulative IPC: 2.26944 (Simulation time: 0 hr 1 min 10 sec) 
Heartbeat CPU 0 instructions: 20000003 cycles: 8812660 heartbeat IPC: 2.26949 cumulative IPC: 2.26946 (Simulation time: 0 hr 2 min 21 sec) 
Heartbeat CPU 0 instructions: 30000000 cycles: 13218900 heartbeat IPC: 2.26951 cumulative IPC: 2.26948 (Simulation time: 0 hr 3 min 31 sec) 
Heartbeat CPU 0 instructions: 40000001 cycles: 17625166 heartbeat IPC: 2.2695 cumulative IPC: 2.26948 (Simulation time: 0 hr 4 min 41 sec) 
Heartbeat CPU 0 instructions: 50000004 cycles: 22031434 heartbeat IPC: 2.2695 cumulative IPC: 2.26948 (Simulation time: 0 hr 5 min 52 sec) 
Heartbeat CPU 0 instructions: 60000003 cycles: 26437678 heartbeat IPC: 2.26951 cumulative IPC: 2.26949 (Simulation time: 0 hr 7 min 2 sec) 
Heartbeat CPU 0 instructions: 70000004 cycles: 30843946 heartbeat IPC: 2.26949 cumulative IPC: 2.26949 (Simulation time: 0 hr 8 min 12 sec) 
Heartbeat CPU 0 instructions: 80000000 cycles: 35250202 heartbeat IPC: 2.2695 cumulative IPC: 2.26949 (Simulation time: 0 hr 9 min 23 sec) 
Heartbeat CPU 0 instructions: 90000001 cycles: 39656471 heartbeat IPC: 2.26949 cumulative IPC: 2.26949 (Simulation time: 0 hr 10 min 33 sec) 
Heartbeat CPU 0 instructions: 100000000 cycles: 44062736 heartbeat IPC: 2.2695 cumulative IPC: 2.26949 (Simulation time: 0 hr 11 min 43 sec) 
Heartbeat CPU 0 instructions: 110000001 cycles: 48468984 heartbeat IPC: 2.2695 cumulative IPC: 2.26949 (Simulation time: 0 hr 12 min 54 sec) 
Heartbeat CPU 0 instructions: 120000001 cycles: 52875240 heartbeat IPC: 2.2695 cumulative IPC: 2.26949 (Simulation time: 0 hr 14 min 4 sec) 
Heartbeat CPU 0 instructions: 130000002 cycles: 57281498 heartbeat IPC: 2.2695 cumulative IPC: 2.26949 (Simulation time: 0 hr 15 min 14 sec) 
Heartbeat CPU 0 instructions: 140000001 cycles: 61687744 heartbeat IPC: 2.26951 cumulative IPC: 2.26949 (Simulation time: 0 hr 16 min 24 sec) 
Heartbeat CPU 0 instructions: 150000000 cycles: 66094016 heartbeat IPC: 2.26949 cumulative IPC: 2.26949 (Simulation time: 0 hr 17 min 36 sec) 
Heartbeat CPU 0 instructions: 160000004 cycles: 70500291 heartbeat IPC: 2.26949 cumulative IPC: 2.26949 (Simulation time: 0 hr 18 min 46 sec) 
Heartbeat CPU 0 instructions: 170000000 cycles: 74906534 heartbeat IPC: 2.26951 cumulative IPC: 2.2695 (Simulation time: 0 hr 19 min 56 sec) 
Heartbeat CPU 0 instructions: 180000002 cycles: 79312803 heartbeat IPC: 2.26949 cumulative IPC: 2.2695 (Simulation time: 0 hr 21 min 7 sec) 
Heartbeat CPU 0 instructions: 190000001 cycles: 83719047 heartbeat IPC: 2.26951 cumulative IPC: 2.2695 (Simulation time: 0 hr 22 min 17 sec) 
Heartbeat CPU 0 instructions: 200000004 cycles: 88125315 heartbeat IPC: 2.2695 cumulative IPC: 2.2695 (Simulation time: 0 hr 23 min 27 sec) 
Heartbeat CPU 0 instructions: 210000003 cycles: 92531586 heartbeat IPC: 2.26949 cumulative IPC: 2.2695 (Simulation time: 0 hr 24 min 38 sec) 
Heartbeat CPU 0 instructions: 220000001 cycles: 96937829 heartbeat IPC: 2.26951 cumulative IPC: 2.2695 (Simulation time: 0 hr 25 min 48 sec) 
Heartbeat CPU 0 instructions: 230000002 cycles: 101344088 heartbeat IPC: 2.2695 cumulative IPC: 2.2695 (Simulation time: 0 hr 26 min 58 sec) 
Heartbeat CPU 0 instructions: 240000003 cycles: 105750342 heartbeat IPC: 2.2695 cumulative IPC: 2.2695 (Simulation time: 0 hr 28 min 9 sec) 
Heartbeat CPU 0 instructions: 250000001 cycles: 110156598 heartbeat IPC: 2.2695 cumulative IPC: 2.2695 (Simulation time: 0 hr 29 min 19 sec) 
Heartbeat CPU 0 instructions: 260000004 cycles: 114562888 heartbeat IPC: 2.26948 cumulative IPC: 2.2695 (Simulation time: 0 hr 30 min 29 sec) 
Heartbeat CPU 0 instructions: 270000002 cycles: 118969135 heartbeat IPC: 2.2695 cumulative IPC: 2.2695 (Simulation time: 0 hr 31 min 40 sec) 
Heartbeat CPU 0 instructions: 280000000 cycles: 123375387 heartbeat IPC: 2.2695 cumulative IPC: 2.2695 (Simulation time: 0 hr 32 min 50 sec) 
Heartbeat CPU 0 instructions: 290000002 cycles: 127781648 heartbeat IPC: 2.2695 cumulative IPC: 2.2695 (Simulation time: 0 hr 34 min 1 sec) 
Heartbeat CPU 0 instructions: 300000003 cycles: 132187899 heartbeat IPC: 2.2695 cumulative IPC: 2.2695 (Simulation time: 0 hr 35 min 11 sec) 
Heartbeat CPU 0 instructions: 310000001 cycles: 136594166 heartbeat IPC: 2.26949 cumulative IPC: 2.2695 (Simulation time: 0 hr 36 min 21 sec) 
Heartbeat CPU 0 instructions: 320000000 cycles: 140657274 heartbeat IPC: 2.46117 cumulative IPC: 2.27503 (Simulation time: 0 hr 37 min 25 sec) 
Heartbeat CPU 0 instructions: 330000003 cycles: 143252507 heartbeat IPC: 3.85322 cumulative IPC: 2.30362 (Simulation time: 0 hr 38 min 0 sec) 
Heartbeat CPU 0 instructions: 340000001 cycles: 145778705 heartbeat IPC: 3.95852 cumulative IPC: 2.3323 (Simulation time: 0 hr 38 min 30 sec) 
Heartbeat CPU 0 instructions: 350000001 cycles: 148278705 heartbeat IPC: 4 cumulative IPC: 2.36042 (Simulation time: 0 hr 38 min 58 sec) 
Heartbeat CPU 0 instructions: 360000001 cycles: 152663180 heartbeat IPC: 2.28077 cumulative IPC: 2.35813 (Simulation time: 0 hr 40 min 8 sec) 
Heartbeat CPU 0 instructions: 370000000 cycles: 157069424 heartbeat IPC: 2.26951 cumulative IPC: 2.35565 (Simulation time: 0 hr 41 min 20 sec) 
Heartbeat CPU 0 instructions: 380000001 cycles: 161475691 heartbeat IPC: 2.2695 cumulative IPC: 2.3533 (Simulation time: 0 hr 42 min 31 sec) 
Heartbeat CPU 0 instructions: 390000001 cycles: 165881950 heartbeat IPC: 2.2695 cumulative IPC: 2.35107 (Simulation time: 0 hr 43 min 42 sec) 
Heartbeat CPU 0 instructions: 400000000 cycles: 170288206 heartbeat IPC: 2.2695 cumulative IPC: 2.34896 (Simulation time: 0 hr 44 min 52 sec) 
Heartbeat CPU 0 instructions: 410000003 cycles: 174694474 heartbeat IPC: 2.2695 cumulative IPC: 2.34695 (Simulation time: 0 hr 46 min 3 sec) 
Heartbeat CPU 0 instructions: 420000000 cycles: 179100717 heartbeat IPC: 2.26951 cumulative IPC: 2.34505 (Simulation time: 0 hr 47 min 14 sec) 
Heartbeat CPU 0 instructions: 430000002 cycles: 183506972 heartbeat IPC: 2.2695 cumulative IPC: 2.34324 (Simulation time: 0 hr 48 min 25 sec) 
Heartbeat CPU 0 instructions: 440000000 cycles: 187913230 heartbeat IPC: 2.2695 cumulative IPC: 2.34151 (Simulation time: 0 hr 49 min 36 sec) 
Heartbeat CPU 0 instructions: 450000000 cycles: 192319510 heartbeat IPC: 2.26949 cumulative IPC: 2.33986 (Simulation time: 0 hr 50 min 48 sec) 
Heartbeat CPU 0 instructions: 460000001 cycles: 196725779 heartbeat IPC: 2.26949 cumulative IPC: 2.33828 (Simulation time: 0 hr 51 min 59 sec) 
Heartbeat CPU 0 instructions: 470000002 cycles: 201132024 heartbeat IPC: 2.26951 cumulative IPC: 2.33677 (Simulation time: 0 hr 53 min 11 sec) 
Heartbeat CPU 0 instructions: 480000004 cycles: 205538280 heartbeat IPC: 2.2695 cumulative IPC: 2.33533 (Simulation time: 0 hr 54 min 22 sec) 
Heartbeat CPU 0 instructions: 490000001 cycles: 209944538 heartbeat IPC: 2.2695 cumulative IPC: 2.33395 (Simulation time: 0 hr 55 min 34 sec) 
Heartbeat CPU 0 instructions: 500000003 cycles: 214350785 heartbeat IPC: 2.26951 cumulative IPC: 2.33262 (Simulation time: 0 hr 56 min 46 sec) 

Warmup complete CPU 0 instructions: 500000003 cycles: 214350785 (Simulation time: 0 hr 56 min 46 sec) 

Heartbeat CPU 0 instructions: 510000003 cycles: 243204408 heartbeat IPC: 0.346577 cumulative IPC: 0.346577 (Simulation time: 0 hr 59 min 42 sec) 
Heartbeat CPU 0 instructions: 520000003 cycles: 272065676 heartbeat IPC: 0.346485 cumulative IPC: 0.346531 (Simulation time: 1 hr 2 min 37 sec) 
Heartbeat CPU 0 instructions: 530000001 cycles: 300920302 heartbeat IPC: 0.346565 cumulative IPC: 0.346542 (Simulation time: 1 hr 5 min 32 sec) 
Heartbeat CPU 0 instructions: 540000004 cycles: 329771903 heartbeat IPC: 0.346601 cumulative IPC: 0.346557 (Simulation time: 1 hr 8 min 28 sec) 
Heartbeat CPU 0 instructions: 550000004 cycles: 358629222 heartbeat IPC: 0.346533 cumulative IPC: 0.346552 (Simulation time: 1 hr 11 min 23 sec) 
Heartbeat CPU 0 instructions: 560000001 cycles: 387486073 heartbeat IPC: 0.346538 cumulative IPC: 0.34655 (Simulation time: 1 hr 14 min 19 sec) 
Heartbeat CPU 0 instructions: 570000003 cycles: 416341273 heartbeat IPC: 0.346558 cumulative IPC: 0.346551 (Simulation time: 1 hr 17 min 14 sec) 
Heartbeat CPU 0 instructions: 580000003 cycles: 445195696 heartbeat IPC: 0.346567 cumulative IPC: 0.346553 (Simulation time: 1 hr 20 min 10 sec) 
Heartbeat CPU 0 instructions: 590000004 cycles: 474056311 heartbeat IPC: 0.346493 cumulative IPC: 0.346546 (Simulation time: 1 hr 23 min 6 sec) 
Heartbeat CPU 0 instructions: 600000001 cycles: 502912984 heartbeat IPC: 0.34654 cumulative IPC: 0.346546 (Simulation time: 1 hr 26 min 1 sec) 
Heartbeat CPU 0 instructions: 610000002 cycles: 531769517 heartbeat IPC: 0.346542 cumulative IPC: 0.346545 (Simulation time: 1 hr 28 min 57 sec) 
Heartbeat CPU 0 instructions: 620000001 cycles: 560621051 heartbeat IPC: 0.346602 cumulative IPC: 0.34655 (Simulation time: 1 hr 31 min 56 sec) 
Heartbeat CPU 0 instructions: 630000001 cycles: 589478902 heartbeat IPC: 0.346526 cumulative IPC: 0.346548 (Simulation time: 1 hr 34 min 50 sec) 
Heartbeat CPU 0 instructions: 640000003 cycles: 618335304 heartbeat IPC: 0.346544 cumulative IPC: 0.346548 (Simulation time: 1 hr 37 min 45 sec) 
Heartbeat CPU 0 instructions: 650000001 cycles: 647187398 heartbeat IPC: 0.346595 cumulative IPC: 0.346551 (Simulation time: 1 hr 40 min 39 sec) 
Heartbeat CPU 0 instructions: 660000004 cycles: 676043568 heartbeat IPC: 0.346546 cumulative IPC: 0.346551 (Simulation time: 1 hr 43 min 34 sec) 
Heartbeat CPU 0 instructions: 670000003 cycles: 704893685 heartbeat IPC: 0.346619 cumulative IPC: 0.346555 (Simulation time: 1 hr 46 min 28 sec) 
Heartbeat CPU 0 instructions: 680000004 cycles: 733753275 heartbeat IPC: 0.346505 cumulative IPC: 0.346552 (Simulation time: 1 hr 49 min 23 sec) 
Heartbeat CPU 0 instructions: 690000000 cycles: 762610361 heartbeat IPC: 0.346535 cumulative IPC: 0.346551 (Simulation time: 1 hr 52 min 18 sec) 
Heartbeat CPU 0 instructions: 700000003 cycles: 791468866 heartbeat IPC: 0.346518 cumulative IPC: 0.34655 (Simulation time: 1 hr 55 min 14 sec) 
Heartbeat CPU 0 instructions: 710000003 cycles: 818920012 heartbeat IPC: 0.364284 cumulative IPC: 0.347355 (Simulation time: 1 hr 58 min 2 sec) 
Heartbeat CPU 0 instructions: 720000000 cycles: 828673999 heartbeat IPC: 1.02522 cumulative IPC: 0.358118 (Simulation time: 1 hr 59 min 20 sec) 
Heartbeat CPU 0 instructions: 730000000 cycles: 840378761 heartbeat IPC: 0.854353 cumulative IPC: 0.367396 (Simulation time: 2 hr 0 min 51 sec) 
Heartbeat CPU 0 instructions: 740000004 cycles: 863959660 heartbeat IPC: 0.424072 cumulative IPC: 0.369453 (Simulation time: 2 hr 3 min 33 sec) 
Heartbeat CPU 0 instructions: 750000004 cycles: 887662729 heartbeat IPC: 0.421886 cumulative IPC: 0.371299 (Simulation time: 2 hr 6 min 15 sec) 
Heartbeat CPU 0 instructions: 760000002 cycles: 910068666 heartbeat IPC: 0.44631 cumulative IPC: 0.373715 (Simulation time: 2 hr 8 min 48 sec) 
Heartbeat CPU 0 instructions: 770000001 cycles: 916936940 heartbeat IPC: 1.45597 cumulative IPC: 0.384295 (Simulation time: 2 hr 9 min 32 sec) 
Heartbeat CPU 0 instructions: 780000000 cycles: 926761084 heartbeat IPC: 1.0179 cumulative IPC: 0.393032 (Simulation time: 2 hr 10 min 50 sec) 
Heartbeat CPU 0 instructions: 790000002 cycles: 939070106 heartbeat IPC: 0.812412 cumulative IPC: 0.400155 (Simulation time: 2 hr 12 min 25 sec) 
Heartbeat CPU 0 instructions: 800000003 cycles: 956184731 heartbeat IPC: 0.584296 cumulative IPC: 0.404403 (Simulation time: 2 hr 14 min 29 sec) 
Heartbeat CPU 0 instructions: 810000003 cycles: 975241521 heartbeat IPC: 0.524747 cumulative IPC: 0.407417 (Simulation time: 2 hr 16 min 41 sec) 
Heartbeat CPU 0 instructions: 820000001 cycles: 1004193784 heartbeat IPC: 0.345396 cumulative IPC: 0.405144 (Simulation time: 2 hr 19 min 39 sec) 
Heartbeat CPU 0 instructions: 830000001 cycles: 1033124019 heartbeat IPC: 0.345659 cumulative IPC: 0.403042 (Simulation time: 2 hr 22 min 36 sec) 
Heartbeat CPU 0 instructions: 840000002 cycles: 1062060494 heartbeat IPC: 0.345585 cumulative IPC: 0.401081 (Simulation time: 2 hr 25 min 33 sec) 
Heartbeat CPU 0 instructions: 850000002 cycles: 1090989166 heartbeat IPC: 0.345678 cumulative IPC: 0.399252 (Simulation time: 2 hr 28 min 31 sec) 
Heartbeat CPU 0 instructions: 860000000 cycles: 1119924297 heartbeat IPC: 0.345601 cumulative IPC: 0.397538 (Simulation time: 2 hr 31 min 29 sec) 
Heartbeat CPU 0 instructions: 870000002 cycles: 1148856474 heartbeat IPC: 0.345636 cumulative IPC: 0.395931 (Simulation time: 2 hr 34 min 28 sec) 
Heartbeat CPU 0 instructions: 880000004 cycles: 1177787001 heartbeat IPC: 0.345656 cumulative IPC: 0.394422 (Simulation time: 2 hr 37 min 26 sec) 
Heartbeat CPU 0 instructions: 890000002 cycles: 1206718085 heartbeat IPC: 0.345649 cumulative IPC: 0.393 (Simulation time: 2 hr 40 min 25 sec) 
Heartbeat CPU 0 instructions: 900000001 cycles: 1235659456 heartbeat IPC: 0.345526 cumulative IPC: 0.391654 (Simulation time: 2 hr 43 min 22 sec) 
Heartbeat CPU 0 instructions: 910000004 cycles: 1264591794 heartbeat IPC: 0.345634 cumulative IPC: 0.390387 (Simulation time: 2 hr 46 min 19 sec) 
Heartbeat CPU 0 instructions: 920000000 cycles: 1293523358 heartbeat IPC: 0.345643 cumulative IPC: 0.389187 (Simulation time: 2 hr 49 min 17 sec) 
Heartbeat CPU 0 instructions: 930000004 cycles: 1322458749 heartbeat IPC: 0.345598 cumulative IPC: 0.388049 (Simulation time: 2 hr 52 min 14 sec) 
Heartbeat CPU 0 instructions: 940000001 cycles: 1351385879 heartbeat IPC: 0.345696 cumulative IPC: 0.386971 (Simulation time: 2 hr 55 min 11 sec) 
Heartbeat CPU 0 instructions: 950000004 cycles: 1380321028 heartbeat IPC: 0.345601 cumulative IPC: 0.385945 (Simulation time: 2 hr 58 min 8 sec) 
Heartbeat CPU 0 instructions: 960000001 cycles: 1409251355 heartbeat IPC: 0.345658 cumulative IPC: 0.384969 (Simulation time: 3 hr 1 min 5 sec) 
Heartbeat CPU 0 instructions: 970000003 cycles: 1438186724 heartbeat IPC: 0.345598 cumulative IPC: 0.384038 (Simulation time: 3 hr 4 min 2 sec) 
Heartbeat CPU 0 instructions: 980000001 cycles: 1467120121 heartbeat IPC: 0.345621 cumulative IPC: 0.383151 (Simulation time: 3 hr 6 min 59 sec) 
Heartbeat CPU 0 instructions: 990000001 cycles: 1496050317 heartbeat IPC: 0.34566 cumulative IPC: 0.382305 (Simulation time: 3 hr 9 min 56 sec) 
Heartbeat CPU 0 instructions: 1000000003 cycles: 1524983561 heartbeat IPC: 0.345623 cumulative IPC: 0.381495 (Simulation time: 3 hr 12 min 53 sec) 
Heartbeat CPU 0 instructions: 1010000002 cycles: 1553917527 heartbeat IPC: 0.345615 cumulative IPC: 0.38072 (Simulation time: 3 hr 15 min 49 sec) 
Heartbeat CPU 0 instructions: 1020000004 cycles: 1582848127 heartbeat IPC: 0.345655 cumulative IPC: 0.379979 (Simulation time: 3 hr 18 min 46 sec) 
Heartbeat CPU 0 instructions: 1030000001 cycles: 1611781522 heartbeat IPC: 0.345621 cumulative IPC: 0.379267 (Simulation time: 3 hr 21 min 43 sec) 
Heartbeat CPU 0 instructions: 1040000004 cycles: 1640717546 heartbeat IPC: 0.34559 cumulative IPC: 0.378584 (Simulation time: 3 hr 24 min 40 sec) 
Heartbeat CPU 0 instructions: 1050000003 cycles: 1669649106 heartbeat IPC: 0.345643 cumulative IPC: 0.377929 (Simulation time: 3 hr 27 min 37 sec) 
Heartbeat CPU 0 instructions: 1060000000 cycles: 1698585515 heartbeat IPC: 0.345585 cumulative IPC: 0.377299 (Simulation time: 3 hr 30 min 55 sec) 
Heartbeat CPU 0 instructions: 1070000004 cycles: 1727514176 heartbeat IPC: 0.345678 cumulative IPC: 0.376694 (Simulation time: 3 hr 36 min 28 sec) 
Heartbeat CPU 0 instructions: 1080000000 cycles: 1756448715 heartbeat IPC: 0.345608 cumulative IPC: 0.376111 (Simulation time: 3 hr 40 min 1 sec) 
Heartbeat CPU 0 instructions: 1090000000 cycles: 1785377353 heartbeat IPC: 0.345678 cumulative IPC: 0.375551 (Simulation time: 3 hr 43 min 53 sec) 
Heartbeat CPU 0 instructions: 1100000000 cycles: 1814312797 heartbeat IPC: 0.345597 cumulative IPC: 0.375009 (Simulation time: 3 hr 47 min 6 sec) 
Heartbeat CPU 0 instructions: 1110000004 cycles: 1843246676 heartbeat IPC: 0.345616 cumulative IPC: 0.374487 (Simulation time: 3 hr 50 min 7 sec) 
Heartbeat CPU 0 instructions: 1120000001 cycles: 1872176142 heartbeat IPC: 0.345668 cumulative IPC: 0.373984 (Simulation time: 3 hr 53 min 6 sec) 
Heartbeat CPU 0 instructions: 1130000003 cycles: 1901109602 heartbeat IPC: 0.345621 cumulative IPC: 0.373497 (Simulation time: 3 hr 57 min 4 sec) 
Heartbeat CPU 0 instructions: 1140000002 cycles: 1930041028 heartbeat IPC: 0.345645 cumulative IPC: 0.373028 (Simulation time: 4 hr 0 min 57 sec) 
Heartbeat CPU 0 instructions: 1150000000 cycles: 1958973606 heartbeat IPC: 0.345631 cumulative IPC: 0.372573 (Simulation time: 4 hr 4 min 20 sec) 
Heartbeat CPU 0 instructions: 1160000003 cycles: 1987906494 heartbeat IPC: 0.345628 cumulative IPC: 0.372134 (Simulation time: 4 hr 7 min 39 sec) 
Heartbeat CPU 0 instructions: 1170000003 cycles: 2013199033 heartbeat IPC: 0.395374 cumulative IPC: 0.372461 (Simulation time: 4 hr 10 min 44 sec) 
Heartbeat CPU 0 instructions: 1180000001 cycles: 2026413423 heartbeat IPC: 0.756751 cumulative IPC: 0.375263 (Simulation time: 4 hr 12 min 24 sec) 
Heartbeat CPU 0 instructions: 1190000004 cycles: 2045058384 heartbeat IPC: 0.536338 cumulative IPC: 0.376903 (Simulation time: 4 hr 14 min 35 sec) 
Heartbeat CPU 0 instructions: 1200000002 cycles: 2066959457 heartbeat IPC: 0.456599 cumulative IPC: 0.377846 (Simulation time: 4 hr 17 min 2 sec) 
Heartbeat CPU 0 instructions: 1210000003 cycles: 2096470936 heartbeat IPC: 0.338851 cumulative IPC: 0.377234 (Simulation time: 4 hr 20 min 2 sec) 
Heartbeat CPU 0 instructions: 1220000004 cycles: 2125327704 heartbeat IPC: 0.346539 cumulative IPC: 0.376771 (Simulation time: 4 hr 23 min 6 sec) 
Heartbeat CPU 0 instructions: 1230000003 cycles: 2154175000 heartbeat IPC: 0.346653 cumulative IPC: 0.376323 (Simulation time: 4 hr 26 min 1 sec) 
Heartbeat CPU 0 instructions: 1240000001 cycles: 2183021493 heartbeat IPC: 0.346663 cumulative IPC: 0.375888 (Simulation time: 4 hr 28 min 57 sec) 
Heartbeat CPU 0 instructions: 1250000001 cycles: 2211871767 heartbeat IPC: 0.346617 cumulative IPC: 0.375465 (Simulation time: 4 hr 31 min 54 sec) 
Heartbeat CPU 0 instructions: 1260000003 cycles: 2240722913 heartbeat IPC: 0.346607 cumulative IPC: 0.375055 (Simulation time: 4 hr 35 min 1 sec) 
Heartbeat CPU 0 instructions: 1270000003 cycles: 2269568453 heartbeat IPC: 0.346674 cumulative IPC: 0.374656 (Simulation time: 4 hr 38 min 11 sec) 
Heartbeat CPU 0 instructions: 1280000001 cycles: 2298418065 heartbeat IPC: 0.346625 cumulative IPC: 0.374268 (Simulation time: 4 hr 41 min 9 sec) 
Heartbeat CPU 0 instructions: 1290000000 cycles: 2327265006 heartbeat IPC: 0.346657 cumulative IPC: 0.373891 (Simulation time: 4 hr 44 min 5 sec) 
Heartbeat CPU 0 instructions: 1300000001 cycles: 2356113946 heartbeat IPC: 0.346633 cumulative IPC: 0.373524 (Simulation time: 4 hr 47 min 20 sec) 
Heartbeat CPU 0 instructions: 1310000000 cycles: 2384964976 heartbeat IPC: 0.346608 cumulative IPC: 0.373166 (Simulation time: 4 hr 50 min 31 sec) 
Heartbeat CPU 0 instructions: 1320000003 cycles: 2413809778 heartbeat IPC: 0.346683 cumulative IPC: 0.372819 (Simulation time: 4 hr 53 min 40 sec) 
Heartbeat CPU 0 instructions: 1330000000 cycles: 2442661959 heartbeat IPC: 0.346594 cumulative IPC: 0.372479 (Simulation time: 4 hr 57 min 26 sec) 
Heartbeat CPU 0 instructions: 1340000004 cycles: 2471504090 heartbeat IPC: 0.346715 cumulative IPC: 0.37215 (Simulation time: 5 hr 0 min 36 sec) 
Heartbeat CPU 0 instructions: 1350000004 cycles: 2500355929 heartbeat IPC: 0.346598 cumulative IPC: 0.371828 (Simulation time: 5 hr 3 min 33 sec) 
Heartbeat CPU 0 instructions: 1360000002 cycles: 2529204900 heartbeat IPC: 0.346633 cumulative IPC: 0.371514 (Simulation time: 5 hr 6 min 32 sec) 
Heartbeat CPU 0 instructions: 1370000000 cycles: 2558055790 heartbeat IPC: 0.34661 cumulative IPC: 0.371207 (Simulation time: 5 hr 9 min 30 sec) 
Heartbeat CPU 0 instructions: 1380000004 cycles: 2586902013 heartbeat IPC: 0.346666 cumulative IPC: 0.370909 (Simulation time: 5 hr 13 min 11 sec) 
Heartbeat CPU 0 instructions: 1390000000 cycles: 2615751539 heartbeat IPC: 0.346626 cumulative IPC: 0.370617 (Simulation time: 5 hr 16 min 6 sec) 
Heartbeat CPU 0 instructions: 1400000001 cycles: 2644599394 heartbeat IPC: 0.346646 cumulative IPC: 0.370332 (Simulation time: 5 hr 19 min 1 sec) 
Heartbeat CPU 0 instructions: 1410000002 cycles: 2673447822 heartbeat IPC: 0.346639 cumulative IPC: 0.370055 (Simulation time: 5 hr 21 min 57 sec) 
Heartbeat CPU 0 instructions: 1420000000 cycles: 2702297100 heartbeat IPC: 0.346629 cumulative IPC: 0.369783 (Simulation time: 5 hr 25 min 10 sec) 
Heartbeat CPU 0 instructions: 1430000004 cycles: 2731148726 heartbeat IPC: 0.346601 cumulative IPC: 0.369517 (Simulation time: 5 hr 28 min 7 sec) 
Heartbeat CPU 0 instructions: 1440000000 cycles: 2759999592 heartbeat IPC: 0.34661 cumulative IPC: 0.369258 (Simulation time: 5 hr 31 min 3 sec) 
Heartbeat CPU 0 instructions: 1450000000 cycles: 2788845285 heartbeat IPC: 0.346672 cumulative IPC: 0.369004 (Simulation time: 5 hr 33 min 58 sec) 
Heartbeat CPU 0 instructions: 1460000001 cycles: 2817697177 heartbeat IPC: 0.346598 cumulative IPC: 0.368756 (Simulation time: 5 hr 36 min 58 sec) 
Heartbeat CPU 0 instructions: 1470000003 cycles: 2846544944 heartbeat IPC: 0.346647 cumulative IPC: 0.368514 (Simulation time: 5 hr 39 min 54 sec) 
Heartbeat CPU 0 instructions: 1480000002 cycles: 2875390194 heartbeat IPC: 0.346677 cumulative IPC: 0.368277 (Simulation time: 5 hr 42 min 51 sec) 
Heartbeat CPU 0 instructions: 1490000002 cycles: 2904239972 heartbeat IPC: 0.346623 cumulative IPC: 0.368045 (Simulation time: 5 hr 45 min 49 sec) 
Heartbeat CPU 0 instructions: 1500000001 cycles: 2933087461 heartbeat IPC: 0.346651 cumulative IPC: 0.367818 (Simulation time: 5 hr 48 min 58 sec) 
Heartbeat CPU 0 instructions: 1510000002 cycles: 2961934987 heartbeat IPC: 0.34665 cumulative IPC: 0.367596 (Simulation time: 5 hr 51 min 53 sec) 
Heartbeat CPU 0 instructions: 1520000003 cycles: 2990786336 heartbeat IPC: 0.346604 cumulative IPC: 0.367378 (Simulation time: 5 hr 54 min 48 sec) 
Heartbeat CPU 0 instructions: 1530000000 cycles: 3019631331 heartbeat IPC: 0.34668 cumulative IPC: 0.367165 (Simulation time: 5 hr 57 min 56 sec) 
Heartbeat CPU 0 instructions: 1540000004 cycles: 3048481287 heartbeat IPC: 0.346621 cumulative IPC: 0.366956 (Simulation time: 6 hr 0 min 51 sec) 
Heartbeat CPU 0 instructions: 1550000003 cycles: 3077333353 heartbeat IPC: 0.346596 cumulative IPC: 0.36675 (Simulation time: 6 hr 3 min 47 sec) 
Heartbeat CPU 0 instructions: 1560000004 cycles: 3103997517 heartbeat IPC: 0.375035 cumulative IPC: 0.366827 (Simulation time: 6 hr 6 min 31 sec) 
Heartbeat CPU 0 instructions: 1570000000 cycles: 3113739302 heartbeat IPC: 1.02651 cumulative IPC: 0.369043 (Simulation time: 6 hr 7 min 51 sec) 
Heartbeat CPU 0 instructions: 1580000002 cycles: 3125956190 heartbeat IPC: 0.818539 cumulative IPC: 0.370929 (Simulation time: 6 hr 9 min 24 sec) 
Heartbeat CPU 0 instructions: 1590000002 cycles: 3149528953 heartbeat IPC: 0.424218 cumulative IPC: 0.371357 (Simulation time: 6 hr 12 min 3 sec) 
Heartbeat CPU 0 instructions: 1600000002 cycles: 3173073845 heartbeat IPC: 0.424721 cumulative IPC: 0.371782 (Simulation time: 6 hr 14 min 42 sec) 
Heartbeat CPU 0 instructions: 1610000000 cycles: 3194818933 heartbeat IPC: 0.459874 cumulative IPC: 0.372425 (Simulation time: 6 hr 17 min 9 sec) 
Heartbeat CPU 0 instructions: 1620000000 cycles: 3201566521 heartbeat IPC: 1.48201 cumulative IPC: 0.374931 (Simulation time: 6 hr 17 min 52 sec) 
Heartbeat CPU 0 instructions: 1630000001 cycles: 3211555947 heartbeat IPC: 1.00106 cumulative IPC: 0.377018 (Simulation time: 6 hr 19 min 11 sec) 
Heartbeat CPU 0 instructions: 1640000002 cycles: 3224134028 heartbeat IPC: 0.795034 cumulative IPC: 0.378765 (Simulation time: 6 hr 20 min 48 sec) 
Heartbeat CPU 0 instructions: 1650000002 cycles: 3241236769 heartbeat IPC: 0.584702 cumulative IPC: 0.379928 (Simulation time: 6 hr 22 min 51 sec) 
Heartbeat CPU 0 instructions: 1660000001 cycles: 3260813970 heartbeat IPC: 0.510798 cumulative IPC: 0.380769 (Simulation time: 6 hr 25 min 6 sec) 
Heartbeat CPU 0 instructions: 1670000001 cycles: 3289756458 heartbeat IPC: 0.345513 cumulative IPC: 0.380438 (Simulation time: 6 hr 28 min 5 sec) 
Heartbeat CPU 0 instructions: 1680000001 cycles: 3318689769 heartbeat IPC: 0.345622 cumulative IPC: 0.380113 (Simulation time: 6 hr 31 min 3 sec) 
Heartbeat CPU 0 instructions: 1690000001 cycles: 3347620093 heartbeat IPC: 0.345658 cumulative IPC: 0.379795 (Simulation time: 6 hr 34 min 1 sec) 
Heartbeat CPU 0 instructions: 1700000003 cycles: 3376554114 heartbeat IPC: 0.345614 cumulative IPC: 0.379482 (Simulation time: 6 hr 36 min 58 sec) 
Heartbeat CPU 0 instructions: 1710000000 cycles: 3405485928 heartbeat IPC: 0.34564 cumulative IPC: 0.379175 (Simulation time: 6 hr 39 min 55 sec) 
Heartbeat CPU 0 instructions: 1720000001 cycles: 3434417047 heartbeat IPC: 0.345649 cumulative IPC: 0.378874 (Simulation time: 6 hr 42 min 53 sec) 
Heartbeat CPU 0 instructions: 1730000001 cycles: 3463349728 heartbeat IPC: 0.34563 cumulative IPC: 0.378578 (Simulation time: 6 hr 45 min 50 sec) 
Heartbeat CPU 0 instructions: 1740000000 cycles: 3492282280 heartbeat IPC: 0.345631 cumulative IPC: 0.378287 (Simulation time: 6 hr 48 min 48 sec) 
Heartbeat CPU 0 instructions: 1750000003 cycles: 3521221503 heartbeat IPC: 0.345552 cumulative IPC: 0.378001 (Simulation time: 6 hr 51 min 46 sec) 
Heartbeat CPU 0 instructions: 1760000003 cycles: 3550154334 heartbeat IPC: 0.345628 cumulative IPC: 0.37772 (Simulation time: 6 hr 54 min 43 sec) 
Heartbeat CPU 0 instructions: 1770000004 cycles: 3579085481 heartbeat IPC: 0.345648 cumulative IPC: 0.377444 (Simulation time: 6 hr 57 min 41 sec) 
Heartbeat CPU 0 instructions: 1780000000 cycles: 3608018826 heartbeat IPC: 0.345622 cumulative IPC: 0.377173 (Simulation time: 7 hr 0 min 38 sec) 
Heartbeat CPU 0 instructions: 1790000001 cycles: 3636947716 heartbeat IPC: 0.345675 cumulative IPC: 0.376907 (Simulation time: 7 hr 3 min 35 sec) 
Heartbeat CPU 0 instructions: 1800000002 cycles: 3665884764 heartbeat IPC: 0.345578 cumulative IPC: 0.376644 (Simulation time: 7 hr 6 min 33 sec) 
Heartbeat CPU 0 instructions: 1810000004 cycles: 3694817106 heartbeat IPC: 0.345634 cumulative IPC: 0.376386 (Simulation time: 7 hr 9 min 31 sec) 
Heartbeat CPU 0 instructions: 1820000003 cycles: 3723747535 heartbeat IPC: 0.345657 cumulative IPC: 0.376133 (Simulation time: 7 hr 12 min 28 sec) 
Heartbeat CPU 0 instructions: 1830000000 cycles: 3752680530 heartbeat IPC: 0.345626 cumulative IPC: 0.375884 (Simulation time: 7 hr 15 min 26 sec) 
Heartbeat CPU 0 instructions: 1840000000 cycles: 3781615601 heartbeat IPC: 0.345601 cumulative IPC: 0.375638 (Simulation time: 7 hr 18 min 25 sec) 
Heartbeat CPU 0 instructions: 1850000002 cycles: 3810547676 heartbeat IPC: 0.345637 cumulative IPC: 0.375397 (Simulation time: 7 hr 21 min 22 sec) 
Heartbeat CPU 0 instructions: 1860000003 cycles: 3839481782 heartbeat IPC: 0.345613 cumulative IPC: 0.375159 (Simulation time: 7 hr 24 min 20 sec) 
Heartbeat CPU 0 instructions: 1870000001 cycles: 3868410571 heartbeat IPC: 0.345676 cumulative IPC: 0.374925 (Simulation time: 7 hr 27 min 19 sec) 
Heartbeat CPU 0 instructions: 1880000000 cycles: 3897341251 heartbeat IPC: 0.345654 cumulative IPC: 0.374696 (Simulation time: 7 hr 30 min 17 sec) 
Heartbeat CPU 0 instructions: 1890000001 cycles: 3926281958 heartbeat IPC: 0.345534 cumulative IPC: 0.374468 (Simulation time: 7 hr 33 min 14 sec) 
Heartbeat CPU 0 instructions: 1900000002 cycles: 3955212860 heartbeat IPC: 0.345651 cumulative IPC: 0.374245 (Simulation time: 7 hr 36 min 13 sec) 
Heartbeat CPU 0 instructions: 1910000002 cycles: 3984147448 heartbeat IPC: 0.345607 cumulative IPC: 0.374025 (Simulation time: 7 hr 39 min 12 sec) 
Heartbeat CPU 0 instructions: 1920000000 cycles: 4013075710 heartbeat IPC: 0.345683 cumulative IPC: 0.37381 (Simulation time: 7 hr 42 min 10 sec) 
Heartbeat CPU 0 instructions: 1930000000 cycles: 4042008558 heartbeat IPC: 0.345628 cumulative IPC: 0.373597 (Simulation time: 7 hr 45 min 10 sec) 
Heartbeat CPU 0 instructions: 1940000001 cycles: 4070943697 heartbeat IPC: 0.345601 cumulative IPC: 0.373387 (Simulation time: 7 hr 48 min 9 sec) 
Heartbeat CPU 0 instructions: 1950000002 cycles: 4099875244 heartbeat IPC: 0.345643 cumulative IPC: 0.37318 (Simulation time: 7 hr 51 min 7 sec) 
Heartbeat CPU 0 instructions: 1960000002 cycles: 4128807444 heartbeat IPC: 0.345636 cumulative IPC: 0.372976 (Simulation time: 7 hr 54 min 5 sec) 
Heartbeat CPU 0 instructions: 1970000004 cycles: 4157740854 heartbeat IPC: 0.345621 cumulative IPC: 0.372776 (Simulation time: 7 hr 57 min 3 sec) 
Heartbeat CPU 0 instructions: 1980000000 cycles: 4186670456 heartbeat IPC: 0.345667 cumulative IPC: 0.372578 (Simulation time: 8 hr 0 min 1 sec) 
Heartbeat CPU 0 instructions: 1990000001 cycles: 4215606816 heartbeat IPC: 0.345586 cumulative IPC: 0.372383 (Simulation time: 8 hr 2 min 58 sec) 
*** Reached end of trace: traces/410.bwaves-2097B.champsimtrace.xz
Heartbeat CPU 0 instructions: 2000000000 cycles: 4244537692 heartbeat IPC: 0.345651 cumulative IPC: 0.372191 (Simulation time: 8 hr 5 min 55 sec) 
Finished CPU 0 instructions: 1500000001 cycles: 4030187573 cumulative IPC: 0.372191 (Simulation time: 8 hr 5 min 55 sec) 

ChampSim completed all CPUs

Region of Interest Statistics

CPU 0 cumulative IPC: 0.372191 instructions: 1500000001 cycles: 4030187573
cpu0_DTLB TOTAL     ACCESS:  480516758  HIT:  479373967  MISS:    1142791
cpu0_DTLB LOAD      ACCESS:  441199412  HIT:  440129241  MISS:    1070171
cpu0_DTLB RFO       ACCESS:   39317346  HIT:   39244726  MISS:      72620
cpu0_DTLB PREFETCH  ACCESS:          0  HIT:          0  MISS:          0
cpu0_DTLB WRITEBACK ACCESS:          0  HIT:          0  MISS:          0
cpu0_DTLB TRANSLATION ACCESS:          0  HIT:          0  MISS:          0
cpu0_DTLB PREFETCH  REQUESTED:          0  ISSUED:          0  USEFUL:          0  USELESS:          0
cpu0_DTLB AVERAGE MISS LATENCY: 14.4586 cycles
cpu0_ITLB TOTAL     ACCESS:  142464283  HIT:  142464283  MISS:          0
cpu0_ITLB LOAD      ACCESS:  142464283  HIT:  142464283  MISS:          0
cpu0_ITLB RFO       ACCESS:          0  HIT:          0  MISS:          0
cpu0_ITLB PREFETCH  ACCESS:          0  HIT:          0  MISS:          0
cpu0_ITLB WRITEBACK ACCESS:          0  HIT:          0  MISS:          0
cpu0_ITLB TRANSLATION ACCESS:          0  HIT:          0  MISS:          0
cpu0_ITLB PREFETCH  REQUESTED:          0  ISSUED:          0  USEFUL:          0  USELESS:          0
cpu0_ITLB AVERAGE MISS LATENCY: -nan cycles
cpu0_L1I TOTAL     ACCESS:        296  HIT:        262  MISS:         34
cpu0_L1I LOAD      ACCESS:        296  HIT:        262  MISS:         34
cpu0_L1I RFO       ACCESS:          0  HIT:          0  MISS:          0
cpu0_L1I PREFETCH  ACCESS:          0  HIT:          0  MISS:          0
cpu0_L1I WRITEBACK ACCESS:          0  HIT:          0  MISS:          0
cpu0_L1I TRANSLATION ACCESS:          0  HIT:          0  MISS:          0
cpu0_L1I PREFETCH  REQUESTED:          0  ISSUED:          0  USEFUL:          0  USELESS:          0
cpu0_L1I AVERAGE MISS LATENCY: 281.059 cycles
cpu0_STLB TOTAL     ACCESS:    1142791  HIT:     714036  MISS:     428755
cpu0_STLB LOAD      ACCESS:    1070171  HIT:     650754  MISS:     419417
cpu0_STLB RFO       ACCESS:      72620  HIT:      63282  MISS:       9338
cpu0_STLB PREFETCH  ACCESS:          0  HIT:          0  MISS:          0
cpu0_STLB WRITEBACK ACCESS:          0  HIT:          0  MISS:          0
cpu0_STLB TRANSLATION ACCESS:          0  HIT:          0  MISS:          0
cpu0_STLB PREFETCH  REQUESTED:          0  ISSUED:          0  USEFUL:          0  USELESS:          0
cpu0_STLB AVERAGE MISS LATENCY: 14.5047 cycles
cpu0_L1D TOTAL     ACCESS:  534451668  HIT:  505199589  MISS:   29252079
cpu0_L1D LOAD      ACCESS:  430183403  HIT:  401555174  MISS:   28628229
cpu0_L1D RFO       ACCESS:  103839547  HIT:  103242137  MISS:     597410
cpu0_L1D PREFETCH  ACCESS:          0  HIT:          0  MISS:          0
cpu0_L1D WRITEBACK ACCESS:          0  HIT:          0  MISS:          0
cpu0_L1D TRANSLATION ACCESS:     428718  HIT:     402278  MISS:      26440
cpu0_L1D PREFETCH  REQUESTED:          0  ISSUED:          0  USEFUL:          0  USELESS:          0
cpu0_L1D AVERAGE MISS LATENCY: 1040.67 cycles
cpu0_L2C TOTAL     ACCESS:   31033044  HIT:    3003632  MISS:   28029412
cpu0_L2C LOAD      ACCESS:   28628263  HIT:    1196635  MISS:   27431628
cpu0_L2C RFO       ACCESS:     597410  HIT:          0  MISS:     597410
cpu0_L2C PREFETCH  ACCESS:          0  HIT:          0  MISS:          0
cpu0_L2C WRITEBACK ACCESS:    1780931  HIT:    1780883  MISS:         48
cpu0_L2C TRANSLATION ACCESS:      26440  HIT:      26114  MISS:        326
cpu0_L2C PREFETCH  REQUESTED:          0  ISSUED:          0  USEFUL:          0  USELESS:          0
cpu0_L2C AVERAGE MISS LATENCY: 1074.41 cycles
LLC TOTAL     ACCESS:   29810043  HIT:    1784107  MISS:   28025936
LLC LOAD      ACCESS:   27431628  HIT:       3487  MISS:   27428141
LLC RFO       ACCESS:     597410  HIT:          0  MISS:     597410
LLC PREFETCH  ACCESS:          0  HIT:          0  MISS:          0
LLC WRITEBACK ACCESS:    1780679  HIT:    1780619  MISS:         60
LLC TRANSLATION ACCESS:        326  HIT:          1  MISS:        325
LLC PREFETCH  REQUESTED:          0  ISSUED:          0  USEFUL:          0  USELESS:          0
LLC AVERAGE MISS LATENCY: 1053.55 cycles
~~~~~~~~~~Reuse Distance Profiler output~~~~~~~~~~
0	52666336	6603376
1	20611216	10383664
2	26849152	20566208
3	20096400	17139920
4	19058752	16432176
5	18765248	15148192
6	16005856	14113584
7	17133232	12789280
8	14666144	12108912
9	16345184	13430416
10	20603792	18734688
11	16376976	12835696
12	16213120	13996192
13	11815968	9554000
14	15105200	13609744
15	14148736	12202528
16	17151424	15479488
17	27181728	25900288
18	34570816	33590608
19	9613792	9331008
20	9069728	8645376
21	6777568	6704592
22	5923040	5718224
23	6040944	5773744
24	5278928	4681616
25	5424672	4822896
26	3883072	3475280
27	4666240	4240208
28	3266912	2911712
29	3122384	2674784
30	3252832	2983312
31	3189680	3078480
32	3802512	3659248
33	3259312	2945744
34	3820048	3410064
35	3511456	3131584
36	3943648	3252656
37	3651328	3079152
38	2685824	2594976
39	2298832	2223024
40	2174576	2108016
41	2169136	1837216
42	2505104	2037184
43	2191648	1774592
44	2196656	1884496
45	2325392	2251008
46	1640976	1404544
47	2297488	1688256
48	1619232	1281216
49	2077408	1311632
50	1382864	935312
51	1766960	1479216
52	1514976	1193264
53	868576	739264
54	1251584	1192368
55	1284816	1031424
56	1801232	1426960
57	1412160	1295376
58	1945888	1528528
59	2054256	1756976
60	2069632	1596608
61	2300160	1728608
62	2861568	2276320
63	1954624	1574784
64	5407584	4178784
66	5515696	4959312
68	5160800	4521344
70	5340576	4393456
72	4729856	4090448
74	4130848	3599168
76	4596640	4128272
78	3656608	3148480
80	3347744	2725728
82	3997472	3439952
84	4581024	3875872
86	4671664	3813376
88	5971200	5147936
90	7072288	6503360
92	9264384	8843760
94	10752496	9864128
96	10059056	9496032
98	7177376	6579632
100	6154432	5308896
102	8096064	7669184
104	7596224	6630864
106	5837408	4912400
108	5255472	4287312
110	4984320	3889904
112	5588784	4005312
114	5919280	4692704
116	5116144	4202240
118	2993904	2579216
120	4192544	3275568
122	3840256	3535872
124	1570064	1277904
126	829504	820704
128	1365632	1358944
132	1557712	1553296
136	907584	856128
140	1247808	1183920
144	1352368	1299216
148	957552	955056
152	605904	605616
156	918208	918192
160	647840	647792
164	443936	443888
168	147744	147744
172	129536	129424
176	138896	138896
180	5520	5520
184	2400	2336
188	2464	2448
192	1120	1120
196	4656	4656
200	4144	4144
204	4128	3952
208	3904	3904
212	6576	6576
216	4240	4240
220	3504	3504
224	3600	3600
228	2416	2416
232	23856	23856
236	14320	14320
240	3296	3296
244	4752	4752
248	592	592
252	384	384
256	80	80
264	0	0
272	5920	5920
280	8944	8944
288	304	304
296	672	672
304	432	432
312	112	112
320	0	0
328	0	0
336	0	0
344	0	0
352	0	0
360	0	0
368	0	0
376	0	0
384	0	0
392	0	0
400	0	0
408	0	0
416	0	0
424	0	0
432	0	0
440	0	0
448	0	0
456	16	16
464	912	912
472	2864	2864
480	93792	93792
488	188432	188432
496	331120	331120
504	511904	511904
512	1107184	1107184
528	1311584	1311584
544	284400	284400
560	8448	8448
576	496	496
592	231120	231120
608	519360	519360
624	358224	358224
640	321824	321824
656	19936	19936
672	5712	5712
688	1072	1072
704	16	16
720	0	0
736	0	0
752	0	0
768	0	0
784	0	0
800	0	0
816	0	0
832	4096	4096
848	0	0
864	0	0
880	2864	2864
896	2048	2048
912	0	0
928	0	0
944	0	0
960	0	0
976	0	0
992	0	0
1008	0	0
1024	8272	8272
1056	0	0
1088	528	528
1120	4944	4944
1152	15808	15808
1184	13872	13872
1216	4992	4992
1248	1296	1296
1280	192	192
1312	0	0
1344	0	0
1376	0	0
1408	0	0
1440	0	0
1472	0	0
1504	0	0
1536	0	0
1568	0	0
1600	0	0
1632	0	0
1664	0	0
1696	0	0
1728	0	0
1760	0	0
1792	0	0
1824	0	0
1856	0	0
1888	0	0
1920	0	0
1952	0	0
1984	0	0
2016	0	0
2048	0	0
2112	0	0
2176	0	0
2240	0	0
2304	0	0
2368	0	0
2432	0	0
2496	0	0
2560	0	0
2624	0	0
2688	0	0
2752	0	0
2816	0	0
2880	0	0
2944	0	0
3008	0	0
3072	0	0
3136	0	0
3200	0	0
3264	0	0
3328	0	0
3392	0	0
3456	0	0
3520	0	0
3584	0	0
3648	0	0
3712	0	0
3776	0	0
3840	0	0
3904	0	0
3968	0	0
4032	0	0
4096	0	0
4224	0	0
4352	0	0
4480	0	0
4608	0	0
4736	0	0
4864	0	0
4992	0	0
5120	0	0
5248	0	0
5376	0	0
5504	0	0
5632	0	0
5760	0	0
5888	0	0
6016	0	0
6144	0	0
6272	0	0
6400	0	0
6528	0	0
6656	0	0
6784	0	0
6912	0	0
7040	352	352
7168	32	32
7296	0	0
7424	0	0
7552	0	0
7680	0	0
7808	0	0
7936	0	0
8064	0	0
8192	0	0
8448	0	0
8704	0	0
8960	0	0
9216	0	0
9472	0	0
9728	0	0
9984	0	0
10240	0	0
10496	0	0
10752	0	0
11008	0	0
11264	0	0
11520	0	0
11776	0	0
12032	0	0
12288	0	0
12544	0	0
12800	0	0
13056	0	0
13312	0	0
13568	0	0
13824	0	0
14080	0	0
14336	0	0
14592	16	16
14848	32	32
15104	128	128
15360	64	64
15616	0	0
15872	48	48
16128	0	0
16384	0	0
16896	0	0
17408	0	0
17920	32	32
18432	0	0
18944	32	32
19456	0	0
19968	0	0
20480	0	0
20992	0	0
21504	16	16
22016	0	0
22528	0	0
23040	0	0
23552	0	0
24064	0	0
24576	0	0
25088	0	0
25600	0	0
26112	0	0
26624	0	0
27136	0	0
27648	0	0
28160	0	0
28672	0	0
29184	0	0
29696	0	0
30208	0	0
30720	0	0
31232	0	0
31744	6848	6848
32256	159792	159792
32768	1026480	1026480
33792	11552	11552
34816	48	48
35840	0	0
36864	0	0
37888	4448	4448
38912	400816	400816
39936	34496	34496
40960	256	256
41984	128	128
43008	336	336
44032	16	16
45056	0	0
46080	0	0
47104	0	0
48128	16	16
49152	0	0
50176	0	0
51200	0	0
52224	16	16
53248	16	16
54272	0	0
55296	0	0
56320	0	0
57344	32	32
58368	0	0
59392	16	16
60416	16	16
61440	32	32
62464	0	0
63488	0	0
64512	0	0
65536	48	48
67584	0	0
69632	32	32
71680	0	0
73728	16	16
75776	112	112
77824	16	16
79872	0	0
81920	0	0
83968	16	16
86016	0	0
88064	16	16
90112	16	16
92160	0	0
94208	16	16
96256	0	0
98304	16	16
100352	16	16
102400	0	0
104448	0	0
106496	0	0
108544	0	0
110592	16	16
112640	16	16
114688	16	16
116736	0	0
118784	0	0
120832	0	0
122880	16	16
124928	0	0
126976	0	0
129024	0	0
131072	16	16
135168	16	16
139264	32	32
143360	0	0
147456	16	16
151552	0	0
155648	0	0
159744	0	0
163840	64	64
167936	32	32
172032	0	0
176128	32	32
180224	48	48
184320	64	64
188416	16	16
192512	16	16
196608	16	16
200704	32	32
204800	48	48
208896	64	64
212992	16	16
217088	0	0
221184	16	16
225280	32	32
229376	0	0
233472	32	32
237568	16	16
241664	0	0
245760	32	32
249856	0	0
253952	32	32
258048	32	32
262144	32	32
270336	16	16
278528	80	80
286720	32	32
294912	96	96
303104	80	80
311296	16	16
319488	80	80
327680	96	96
335872	80	80
344064	128	128
352256	32	32
360448	48	48
368640	80	80
376832	48	48
385024	96	96
393216	16	16
401408	64	64
409600	32	32
417792	96	96
425984	80	80
434176	144	144
442368	32	32
450560	1440	1440
458752	5424	5424
466944	5600	5600
475136	5488	5488
483328	5504	5504
491520	6256	6256
499712	5904	5904
507904	6016	6016
516096	6480	6480
524288	12656	12656
540672	12736	12736
557056	11744	11744
573440	11984	11984
589824	12128	12128
606208	12416	12416
622592	12496	12496
638976	12176	12176
655360	12592	12592
671744	12624	12624
688128	12016	12016
704512	12480	12480
720896	11136	11136
737280	12368	12368
753664	12048	12048
770048	12256	12256
786432	11232	11232
802816	12544	12544
819200	12416	12416
835584	12432	12432
851968	12528	12528
868352	12688	12688
884736	13024	13024
901120	11712	11712
917504	11568	11568
933888	10640	10640
950272	11568	11568
966656	10288	10288
983040	7296	7296
999424	7808	7808
1015808	7728	7728
1032192	7664	7664
1048576	14976	14976
1081344	14928	14928
1114112	15024	15024
1146880	15168	15168
1179648	21136	21136
1212416	19600	19600
1245184	19168	19168
1277952	19248	19248
1310720	19664	19664
1343488	20400	20400
1376256	19344	19344
1409024	20272	20272
1441792	18896	18896
1474560	21056	21056
1507328	19440	19440
1540096	18800	18800
1572864	20624	20624
1605632	19216	19216
1638400	19504	19504
1671168	18800	18800
1703936	20288	20288
1736704	19824	19824
1769472	18064	18064
1802240	21376	21376
1835008	19232	19232
1867776	19584	19584
1900544	20880	20880
1933312	18864	18864
1966080	19344	19344
1998848	20240	20240
2031616	18800	18800
2064384	20352	20352
2097152	39568	39568
2162688	1194320	1194320
2228224	52912	52912
2293760	30032	30032
2359296	30432	30432
2424832	28880	28880
2490368	29760	29760
2555904	37152	37152
2621440	458304	458304
2686976	44192	44192
2752512	25984	25856
2818048	26160	26160
2883584	25280	25264
2949120	26256	26080
3014656	24416	24352
3080192	25872	25728
3145728	26112	25952
3211264	25344	25152
3276800	25056	25056
3342336	24384	24096
3407872	25824	25440
3473408	25376	25264
3538944	25632	25520
3604480	25088	24880
3670016	25584	25456
3735552	26512	26464
3801088	25376	25184
3866624	26080	26032
3932160	22128	22128
3997696	17024	16976
4063232	17968	17776
4128768	17552	17552
4194304	52752	52736
4325376	52608	52592
4456448	55216	54960
4587520	52944	52752
4718592	54480	54000
4849664	50048	50032
4980736	21280	21216
5111808	21888	21632
5242880	23104	22352
5373952	21264	21040
5505024	21920	21360
5636096	22544	22256
5767168	21520	21488
5898240	21376	21088
6029312	21648	21648
6160384	21824	21552
6291456	18928	18400
6422528	1920	1648
6553600	1968	1248
6684672	1792	1616
6815744	2256	2048
6946816	1696	1440
7077888	1808	1616
7208960	1904	1456
7340032	1776	1392
7471104	1792	1408
7602176	1936	1824
7733248	1408	1360
7864320	1680	1568
7995392	1088	1088
8126464	1920	1792
8257536	1920	1408
8388608	3712	2848
8650752	4128	3776
8912896	2896	2384
9175040	3024	2608
9437184	3872	2912
9699328	3648	3200
9961472	3984	3536
10223616	3760	3296
10485760	3872	3232
10747904	2848	2480
11010048	3952	3120
11272192	4176	3136
11534336	3856	3136
11796480	3728	3360
12058624	3552	2960
12320768	3744	3488
12582912	2832	2736
12845056	4096	3440
13107200	3472	3024
13369344	2928	2672
13631488	3792	3232
13893632	3344	2720
14155776	3600	3264
14417920	3376	3120
14680064	3456	3008
14942208	4240	3232
15204352	3280	2848
15466496	4400	3696
15728640	3760	3024
15990784	3920	3024
16252928	3456	3136
16515072	3632	2720
16777216	6704	5648
17301504	6784	5936
17825792	6320	5024
18350080	6784	5744
18874368	8112	6800
19398656	7296	6240
19922944	8528	6480
20447232	6912	5760
20971520	7120	5984
21495808	7328	6272
22020096	6576	5472
22544384	7248	5712
23068672	7136	5728
23592960	7664	6928
24117248	8048	6080
24641536	7840	5808
25165824	7200	5616
25690112	7680	6352
26214400	7392	6464
26738688	7776	6464
27262976	7264	6224
27787264	7536	6064
28311552	6144	5696
28835840	6752	5728
29360128	6944	5840
29884416	7808	6544
30408704	7840	6448
30932992	8464	6448
31457280	7216	5968
31981568	7376	6144
32505856	7184	6464
33030144	6592	5536
33554432	13824	11520
34603008	14864	12480
35651584	16000	12880
36700160	16048	12848
37748736	15056	11968
38797312	14672	12224
39845888	14080	11504
40894464	14384	11952
41943040	14608	12496
42991616	13872	12016
44040192	14048	11216
45088768	14608	12064
46137344	14560	11664
47185920	16416	13200
48234496	13984	11120
49283072	14480	12224
50331648	15808	13200
51380224	15136	12864
52428800	13712	11264
53477376	14784	12048
54525952	14288	12048
55574528	14192	12080
56623104	14848	12384
57671680	15360	13024
58720256	15376	12640
59768832	14032	12128
60817408	14176	11840
61865984	15328	13168
62914560	14576	11968
63963136	14928	12272
65011712	14240	11888
66060288	14512	11504
67108864	28288	23456
69206016	28992	23936
71303168	28784	22880
73400320	28528	23280
75497472	29392	24416
77594624	29904	25264
79691776	29696	25104
81788928	32016	26400
83886080	27264	23200
85983232	27936	22832
88080384	28976	24080
90177536	28240	22960
92274688	27904	22800
94371840	29024	24096
96468992	28880	23872
98566144	29664	24080
100663296	28160	22752
102760448	29360	23904
104857600	28432	23472
106954752	29328	23744
109051904	29680	23856
111149056	28944	23776
113246208	28144	23424
115343360	27440	22928
117440512	28944	23696
119537664	29872	24560
121634816	26096	21344
123731968	28640	24064
125829120	29296	23520
127926272	29200	23776
130023424	28160	23920
132120576	31136	25136
134217728	54704	45984
138412032	49936	45248
142606336	23696	21808
146800640	6281904	6281904
150994944	9571952	9571952
155189248	906112	903008
159383552	1095376	1090352
163577856	1633024	1628256
167772160	1012800	1008128
171966464	888480	883376
176160768	2466944	2462048
180355072	14288	9568
184549376	14304	9040
188743680	14992	9728
192937984	15072	9792
197132288	14272	9200
201326592	14240	9280
205520896	14368	9360
209715200	15104	9792
213909504	14128	9152
218103808	14880	9472
222298112	13920	8688
226492416	14400	9568
230686720	14672	9728
234881024	13568	8976
239075328	13680	8800
243269632	14688	9472
247463936	14352	9456
251658240	14224	9136
255852544	14448	9504
260046848	14112	8960
264241152	13344	8864
268435456	28592	18256
276824064	28384	18384
285212672	21616	12160
293601280	12256	9104
301989888	177456	177456
310378496	7088	7088
318767104	0	0
327155712	0	0
335544320	0	0
343932928	0	0
352321536	0	0
360710144	0	0
369098752	0	0
377487360	0	0
385875968	0	0
394264576	0	0
402653184	0	0
411041792	0	0
419430400	0	0
427819008	0	0
436207616	0	0
444596224	0	0
452984832	0	0
461373440	0	0
469762048	0	0
478150656	0	0
486539264	0	0
494927872	0	0
503316480	0	0
511705088	0	0
520093696	0	0
528482304	0	0
536870912	0	0
553648128	0	0
570425344	0	0
587202560	0	0
603979776	0	0
620756992	0	0
637534208	0	0
654311424	0	0
671088640	0	0
687865856	0	0
704643072	0	0
721420288	0	0
738197504	0	0
754974720	0	0
771751936	0	0
788529152	0	0
805306368	0	0
822083584	0	0
838860800	0	0
855638016	0	0
872415232	0	0
889192448	0	0
905969664	0	0
922746880	0	0
939524096	0	0
956301312	0	0
973078528	0	0
989855744	0	0
1006632960	0	0
1023410176	0	0
1040187392	0	0
1056964608	0	0
1073741824	0	0
1107296256	0	0
1140850688	0	0
1174405120	0	0
1207959552	0	0
1241513984	0	0
1275068416	0	0
1308622848	0	0
1342177280	0	0
1375731712	0	0
1409286144	0	0
1442840576	0	0
1476395008	0	0
1509949440	0	0
1543503872	0	0
1577058304	0	0
1610612736	0	0
1644167168	0	0
1677721600	0	0
1711276032	0	0
1744830464	0	0
1778384896	0	0
1811939328	0	0
1845493760	0	0
1879048192	0	0
1912602624	0	0
1946157056	0	0
1979711488	0	0
2013265920	0	0
2046820352	0	0
2080374784	0	0
2113929216	0	0
2147483648	0	0
2214592512	0	0
2281701376	0	0
2348810240	0	0
2415919104	0	0
2483027968	0	0
2550136832	0	0
2617245696	0	0
2684354560	0	0
2751463424	0	0
2818572288	0	0
2885681152	0	0
2952790016	0	0
3019898880	0	0
3087007744	0	0
3154116608	0	0
3221225472	0	0
3288334336	0	0
3355443200	0	0
3422552064	0	0
3489660928	0	0
3556769792	0	0
3623878656	0	0
3690987520	0	0
3758096384	0	0
3825205248	0	0
3892314112	0	0
3959422976	0	0
4026531840	0	0
4093640704	0	0
4160749568	0	0
4227858432	0	0
~~~~~~~~~~Reuse Distance Profiler output end~~~~~~~~~~

DRAM Statistics
 CHANNEL 0
 RQ ROW_BUFFER_HIT:     274394  ROW_BUFFER_MISS:   27751353
 DBUS AVG_CONGESTED_CYCLE:    3.97272
 WQ ROW_BUFFER_HIT:     165709  ROW_BUFFER_MISS:    1614737  FULL:          0


CPU 0 Branch Prediction Accuracy: 72.2249% MPKI: 11.379 Average ROB Occupancy at Mispredict: 259.841
Branch type MPKI
BRANCH_DIRECT_JUMP: 1.06667e-05
BRANCH_INDIRECT: 0
BRANCH_CONDITIONAL: 11.379
BRANCH_DIRECT_CALL: 6.66667e-07
BRANCH_INDIRECT_CALL: 0
BRANCH_RETURN: 1.33333e-06

