
*** ChampSim Multicore Out-of-Order Simulator ***

Warmup Instructions: 500000000
Simulation Instructions: 1500000000
Number of CPUs: 1
Off-chip DRAM Size: 4 GiB Channels: 1 Width: 64-bit Data Rate: 3200 MT/s

VirtualMemory physical capacity: 8588881920 num_ppages: 2096895
VirtualMemory page size: 4096 log2_page_size: 12

CPU 0 runs traces/410.bwaves-1963B.champsimtrace.xz
CPU 0 Bimodal branch predictor
Basic BTB sets: 1024 ways: 8 indirect buffer size: 4096 RAS size: 64
Initializing LRU.
Initializing LRU.
Initializing LRU.
Initializing LRU.
Initializing rdLRU.
Initializing LRU.
Initializing LRU.
Heartbeat CPU 0 instructions: 10000000 cycles: 4406384 heartbeat IPC: 2.26943 cumulative IPC: 2.26943 (Simulation time: 0 hr 1 min 11 sec) 
Heartbeat CPU 0 instructions: 20000001 cycles: 8812653 heartbeat IPC: 2.26949 cumulative IPC: 2.26946 (Simulation time: 0 hr 2 min 23 sec) 
Heartbeat CPU 0 instructions: 30000000 cycles: 13218897 heartbeat IPC: 2.26951 cumulative IPC: 2.26948 (Simulation time: 0 hr 3 min 34 sec) 
Heartbeat CPU 0 instructions: 40000000 cycles: 17625169 heartbeat IPC: 2.26949 cumulative IPC: 2.26948 (Simulation time: 0 hr 4 min 45 sec) 
Heartbeat CPU 0 instructions: 50000000 cycles: 22031435 heartbeat IPC: 2.2695 cumulative IPC: 2.26948 (Simulation time: 0 hr 5 min 57 sec) 
Heartbeat CPU 0 instructions: 60000000 cycles: 26437680 heartbeat IPC: 2.26951 cumulative IPC: 2.26949 (Simulation time: 0 hr 7 min 8 sec) 
Heartbeat CPU 0 instructions: 70000000 cycles: 30843938 heartbeat IPC: 2.2695 cumulative IPC: 2.26949 (Simulation time: 0 hr 8 min 19 sec) 
Heartbeat CPU 0 instructions: 80000001 cycles: 35250205 heartbeat IPC: 2.2695 cumulative IPC: 2.26949 (Simulation time: 0 hr 9 min 31 sec) 
Heartbeat CPU 0 instructions: 90000000 cycles: 39656449 heartbeat IPC: 2.26951 cumulative IPC: 2.26949 (Simulation time: 0 hr 10 min 42 sec) 
Heartbeat CPU 0 instructions: 100000000 cycles: 44062737 heartbeat IPC: 2.26948 cumulative IPC: 2.26949 (Simulation time: 0 hr 11 min 54 sec) 
Heartbeat CPU 0 instructions: 110000003 cycles: 48468989 heartbeat IPC: 2.2695 cumulative IPC: 2.26949 (Simulation time: 0 hr 13 min 5 sec) 
Heartbeat CPU 0 instructions: 120000001 cycles: 52875239 heartbeat IPC: 2.2695 cumulative IPC: 2.26949 (Simulation time: 0 hr 14 min 16 sec) 
Heartbeat CPU 0 instructions: 130000000 cycles: 57281497 heartbeat IPC: 2.2695 cumulative IPC: 2.26949 (Simulation time: 0 hr 15 min 27 sec) 
Heartbeat CPU 0 instructions: 140000002 cycles: 61687747 heartbeat IPC: 2.2695 cumulative IPC: 2.26949 (Simulation time: 0 hr 16 min 39 sec) 
Heartbeat CPU 0 instructions: 150000003 cycles: 66094017 heartbeat IPC: 2.26949 cumulative IPC: 2.26949 (Simulation time: 0 hr 17 min 50 sec) 
Heartbeat CPU 0 instructions: 160000002 cycles: 70500281 heartbeat IPC: 2.2695 cumulative IPC: 2.26949 (Simulation time: 0 hr 19 min 2 sec) 
Heartbeat CPU 0 instructions: 170000000 cycles: 74906536 heartbeat IPC: 2.2695 cumulative IPC: 2.26949 (Simulation time: 0 hr 20 min 14 sec) 
Heartbeat CPU 0 instructions: 180000003 cycles: 79312805 heartbeat IPC: 2.26949 cumulative IPC: 2.26949 (Simulation time: 0 hr 21 min 25 sec) 
Heartbeat CPU 0 instructions: 190000002 cycles: 83719048 heartbeat IPC: 2.26951 cumulative IPC: 2.2695 (Simulation time: 0 hr 22 min 37 sec) 
Heartbeat CPU 0 instructions: 200000001 cycles: 88125304 heartbeat IPC: 2.2695 cumulative IPC: 2.2695 (Simulation time: 0 hr 23 min 48 sec) 
Heartbeat CPU 0 instructions: 210000001 cycles: 92531579 heartbeat IPC: 2.26949 cumulative IPC: 2.2695 (Simulation time: 0 hr 25 min 1 sec) 
Heartbeat CPU 0 instructions: 220000002 cycles: 96937831 heartbeat IPC: 2.2695 cumulative IPC: 2.2695 (Simulation time: 0 hr 26 min 12 sec) 
Heartbeat CPU 0 instructions: 230000000 cycles: 101344094 heartbeat IPC: 2.2695 cumulative IPC: 2.2695 (Simulation time: 0 hr 27 min 24 sec) 
Heartbeat CPU 0 instructions: 240000001 cycles: 105750343 heartbeat IPC: 2.2695 cumulative IPC: 2.2695 (Simulation time: 0 hr 28 min 36 sec) 
Heartbeat CPU 0 instructions: 250000000 cycles: 110156595 heartbeat IPC: 2.2695 cumulative IPC: 2.2695 (Simulation time: 0 hr 29 min 48 sec) 
Heartbeat CPU 0 instructions: 260000002 cycles: 114562857 heartbeat IPC: 2.2695 cumulative IPC: 2.2695 (Simulation time: 0 hr 31 min 0 sec) 
Heartbeat CPU 0 instructions: 270000000 cycles: 118969136 heartbeat IPC: 2.26949 cumulative IPC: 2.2695 (Simulation time: 0 hr 32 min 12 sec) 
Heartbeat CPU 0 instructions: 280000001 cycles: 123375388 heartbeat IPC: 2.2695 cumulative IPC: 2.2695 (Simulation time: 0 hr 33 min 24 sec) 
Heartbeat CPU 0 instructions: 290000001 cycles: 127781649 heartbeat IPC: 2.2695 cumulative IPC: 2.2695 (Simulation time: 0 hr 34 min 36 sec) 
Heartbeat CPU 0 instructions: 300000000 cycles: 132187894 heartbeat IPC: 2.26951 cumulative IPC: 2.2695 (Simulation time: 0 hr 35 min 48 sec) 
Heartbeat CPU 0 instructions: 310000003 cycles: 136594173 heartbeat IPC: 2.26949 cumulative IPC: 2.2695 (Simulation time: 0 hr 36 min 59 sec) 
Heartbeat CPU 0 instructions: 320000001 cycles: 141000412 heartbeat IPC: 2.26951 cumulative IPC: 2.2695 (Simulation time: 0 hr 38 min 11 sec) 
Heartbeat CPU 0 instructions: 330000003 cycles: 145406677 heartbeat IPC: 2.2695 cumulative IPC: 2.2695 (Simulation time: 0 hr 39 min 23 sec) 
Heartbeat CPU 0 instructions: 340000004 cycles: 149812946 heartbeat IPC: 2.26949 cumulative IPC: 2.2695 (Simulation time: 0 hr 40 min 35 sec) 
Heartbeat CPU 0 instructions: 350000001 cycles: 153147460 heartbeat IPC: 2.99894 cumulative IPC: 2.28538 (Simulation time: 0 hr 41 min 24 sec) 
Heartbeat CPU 0 instructions: 360000003 cycles: 155730577 heartbeat IPC: 3.87129 cumulative IPC: 2.31168 (Simulation time: 0 hr 41 min 58 sec) 
Heartbeat CPU 0 instructions: 370000003 cycles: 158230577 heartbeat IPC: 4 cumulative IPC: 2.33836 (Simulation time: 0 hr 42 min 26 sec) 
Heartbeat CPU 0 instructions: 380000003 cycles: 161475699 heartbeat IPC: 3.08155 cumulative IPC: 2.3533 (Simulation time: 0 hr 43 min 11 sec) 
Heartbeat CPU 0 instructions: 390000002 cycles: 165881939 heartbeat IPC: 2.26951 cumulative IPC: 2.35107 (Simulation time: 0 hr 44 min 23 sec) 
Heartbeat CPU 0 instructions: 400000003 cycles: 170288215 heartbeat IPC: 2.26949 cumulative IPC: 2.34896 (Simulation time: 0 hr 45 min 34 sec) 
Heartbeat CPU 0 instructions: 410000002 cycles: 174694466 heartbeat IPC: 2.2695 cumulative IPC: 2.34695 (Simulation time: 0 hr 46 min 45 sec) 
Heartbeat CPU 0 instructions: 420000003 cycles: 179100722 heartbeat IPC: 2.2695 cumulative IPC: 2.34505 (Simulation time: 0 hr 47 min 56 sec) 
Heartbeat CPU 0 instructions: 430000001 cycles: 183506982 heartbeat IPC: 2.2695 cumulative IPC: 2.34324 (Simulation time: 0 hr 49 min 7 sec) 
Heartbeat CPU 0 instructions: 440000001 cycles: 187913232 heartbeat IPC: 2.2695 cumulative IPC: 2.34151 (Simulation time: 0 hr 50 min 18 sec) 
Heartbeat CPU 0 instructions: 450000000 cycles: 192319482 heartbeat IPC: 2.2695 cumulative IPC: 2.33986 (Simulation time: 0 hr 51 min 28 sec) 
Heartbeat CPU 0 instructions: 460000004 cycles: 196725780 heartbeat IPC: 2.26948 cumulative IPC: 2.33828 (Simulation time: 0 hr 52 min 39 sec) 
Heartbeat CPU 0 instructions: 470000002 cycles: 201132026 heartbeat IPC: 2.26951 cumulative IPC: 2.33677 (Simulation time: 0 hr 53 min 50 sec) 
Heartbeat CPU 0 instructions: 480000001 cycles: 205538278 heartbeat IPC: 2.2695 cumulative IPC: 2.33533 (Simulation time: 0 hr 55 min 1 sec) 
Heartbeat CPU 0 instructions: 490000001 cycles: 209944539 heartbeat IPC: 2.2695 cumulative IPC: 2.33395 (Simulation time: 0 hr 56 min 11 sec) 
Heartbeat CPU 0 instructions: 500000000 cycles: 214350783 heartbeat IPC: 2.26951 cumulative IPC: 2.33262 (Simulation time: 0 hr 57 min 23 sec) 

Warmup complete CPU 0 instructions: 500000003 cycles: 214350784 (Simulation time: 0 hr 57 min 23 sec) 

Heartbeat CPU 0 instructions: 510000001 cycles: 243172469 heartbeat IPC: 0.346961 cumulative IPC: 0.346961 (Simulation time: 1 hr 0 min 19 sec) 
Heartbeat CPU 0 instructions: 520000000 cycles: 271999825 heartbeat IPC: 0.346893 cumulative IPC: 0.346927 (Simulation time: 1 hr 3 min 14 sec) 
Heartbeat CPU 0 instructions: 530000000 cycles: 300825786 heartbeat IPC: 0.34691 cumulative IPC: 0.346921 (Simulation time: 1 hr 6 min 8 sec) 
Heartbeat CPU 0 instructions: 540000000 cycles: 329650203 heartbeat IPC: 0.346928 cumulative IPC: 0.346923 (Simulation time: 1 hr 9 min 3 sec) 
Heartbeat CPU 0 instructions: 550000001 cycles: 358477691 heartbeat IPC: 0.346891 cumulative IPC: 0.346916 (Simulation time: 1 hr 11 min 58 sec) 
Heartbeat CPU 0 instructions: 560000002 cycles: 387301874 heartbeat IPC: 0.346931 cumulative IPC: 0.346919 (Simulation time: 1 hr 14 min 53 sec) 
Heartbeat CPU 0 instructions: 570000000 cycles: 416127660 heartbeat IPC: 0.346912 cumulative IPC: 0.346918 (Simulation time: 1 hr 17 min 48 sec) 
Heartbeat CPU 0 instructions: 580000001 cycles: 444955007 heartbeat IPC: 0.346893 cumulative IPC: 0.346915 (Simulation time: 1 hr 20 min 42 sec) 
Heartbeat CPU 0 instructions: 590000000 cycles: 473780412 heartbeat IPC: 0.346916 cumulative IPC: 0.346915 (Simulation time: 1 hr 23 min 37 sec) 
Heartbeat CPU 0 instructions: 600000002 cycles: 502605663 heartbeat IPC: 0.346918 cumulative IPC: 0.346915 (Simulation time: 1 hr 26 min 32 sec) 
Heartbeat CPU 0 instructions: 610000004 cycles: 531441199 heartbeat IPC: 0.346794 cumulative IPC: 0.346904 (Simulation time: 1 hr 29 min 27 sec) 
Heartbeat CPU 0 instructions: 620000000 cycles: 560266097 heartbeat IPC: 0.346922 cumulative IPC: 0.346906 (Simulation time: 1 hr 32 min 22 sec) 
Heartbeat CPU 0 instructions: 630000004 cycles: 589095883 heartbeat IPC: 0.346864 cumulative IPC: 0.346902 (Simulation time: 1 hr 35 min 16 sec) 
Heartbeat CPU 0 instructions: 640000003 cycles: 617916472 heartbeat IPC: 0.346974 cumulative IPC: 0.346908 (Simulation time: 1 hr 38 min 11 sec) 
Heartbeat CPU 0 instructions: 650000001 cycles: 646742700 heartbeat IPC: 0.346906 cumulative IPC: 0.346907 (Simulation time: 1 hr 41 min 5 sec) 
Heartbeat CPU 0 instructions: 660000001 cycles: 675572738 heartbeat IPC: 0.34686 cumulative IPC: 0.346905 (Simulation time: 1 hr 44 min 1 sec) 
Heartbeat CPU 0 instructions: 670000000 cycles: 704388086 heartbeat IPC: 0.347037 cumulative IPC: 0.346912 (Simulation time: 1 hr 46 min 57 sec) 
Heartbeat CPU 0 instructions: 680000003 cycles: 733203726 heartbeat IPC: 0.347034 cumulative IPC: 0.346919 (Simulation time: 1 hr 49 min 52 sec) 
Heartbeat CPU 0 instructions: 690000001 cycles: 762017977 heartbeat IPC: 0.34705 cumulative IPC: 0.346926 (Simulation time: 1 hr 52 min 47 sec) 
Heartbeat CPU 0 instructions: 700000002 cycles: 790829483 heartbeat IPC: 0.347084 cumulative IPC: 0.346934 (Simulation time: 1 hr 55 min 41 sec) 
Heartbeat CPU 0 instructions: 710000004 cycles: 819643535 heartbeat IPC: 0.347053 cumulative IPC: 0.34694 (Simulation time: 1 hr 58 min 37 sec) 
Heartbeat CPU 0 instructions: 720000004 cycles: 848455161 heartbeat IPC: 0.347082 cumulative IPC: 0.346946 (Simulation time: 2 hr 1 min 33 sec) 
Heartbeat CPU 0 instructions: 730000001 cycles: 877265861 heartbeat IPC: 0.347093 cumulative IPC: 0.346952 (Simulation time: 2 hr 4 min 29 sec) 
Heartbeat CPU 0 instructions: 740000000 cycles: 897024496 heartbeat IPC: 0.506108 cumulative IPC: 0.351559 (Simulation time: 2 hr 6 min 39 sec) 
Heartbeat CPU 0 instructions: 750000001 cycles: 906748005 heartbeat IPC: 1.02844 cumulative IPC: 0.361064 (Simulation time: 2 hr 7 min 57 sec) 
Heartbeat CPU 0 instructions: 760000004 cycles: 924012068 heartbeat IPC: 0.579238 cumulative IPC: 0.366372 (Simulation time: 2 hr 10 min 1 sec) 
Heartbeat CPU 0 instructions: 770000001 cycles: 947628241 heartbeat IPC: 0.423439 cumulative IPC: 0.36821 (Simulation time: 2 hr 12 min 43 sec) 
Heartbeat CPU 0 instructions: 780000000 cycles: 971297587 heartbeat IPC: 0.422487 cumulative IPC: 0.369907 (Simulation time: 2 hr 15 min 25 sec) 
Heartbeat CPU 0 instructions: 790000001 cycles: 987187932 heartbeat IPC: 0.629313 cumulative IPC: 0.375241 (Simulation time: 2 hr 17 min 12 sec) 
Heartbeat CPU 0 instructions: 800000004 cycles: 994624435 heartbeat IPC: 1.34472 cumulative IPC: 0.384481 (Simulation time: 2 hr 18 min 3 sec) 
Heartbeat CPU 0 instructions: 810000002 cycles: 1005136725 heartbeat IPC: 0.951267 cumulative IPC: 0.392015 (Simulation time: 2 hr 19 min 29 sec) 
Heartbeat CPU 0 instructions: 820000004 cycles: 1020122410 heartbeat IPC: 0.667304 cumulative IPC: 0.397135 (Simulation time: 2 hr 21 min 20 sec) 
Heartbeat CPU 0 instructions: 830000000 cycles: 1037155201 heartbeat IPC: 0.587103 cumulative IPC: 0.401067 (Simulation time: 2 hr 23 min 23 sec) 
Heartbeat CPU 0 instructions: 840000000 cycles: 1061079865 heartbeat IPC: 0.417979 cumulative IPC: 0.401545 (Simulation time: 2 hr 25 min 57 sec) 
Heartbeat CPU 0 instructions: 850000001 cycles: 1089973338 heartbeat IPC: 0.346099 cumulative IPC: 0.399716 (Simulation time: 2 hr 28 min 54 sec) 
Heartbeat CPU 0 instructions: 860000001 cycles: 1118867291 heartbeat IPC: 0.346093 cumulative IPC: 0.398003 (Simulation time: 2 hr 31 min 53 sec) 
Heartbeat CPU 0 instructions: 870000001 cycles: 1147761005 heartbeat IPC: 0.346096 cumulative IPC: 0.396396 (Simulation time: 2 hr 34 min 51 sec) 
Heartbeat CPU 0 instructions: 880000002 cycles: 1176650966 heartbeat IPC: 0.346141 cumulative IPC: 0.394887 (Simulation time: 2 hr 37 min 49 sec) 
Heartbeat CPU 0 instructions: 890000003 cycles: 1205547878 heartbeat IPC: 0.346058 cumulative IPC: 0.393464 (Simulation time: 2 hr 40 min 47 sec) 
Heartbeat CPU 0 instructions: 900000001 cycles: 1234451878 heartbeat IPC: 0.345973 cumulative IPC: 0.392118 (Simulation time: 2 hr 43 min 45 sec) 
Heartbeat CPU 0 instructions: 910000001 cycles: 1263343238 heartbeat IPC: 0.346124 cumulative IPC: 0.390851 (Simulation time: 2 hr 46 min 43 sec) 
Heartbeat CPU 0 instructions: 920000002 cycles: 1292235810 heartbeat IPC: 0.34611 cumulative IPC: 0.389652 (Simulation time: 2 hr 49 min 41 sec) 
Heartbeat CPU 0 instructions: 930000001 cycles: 1321132411 heartbeat IPC: 0.346061 cumulative IPC: 0.388514 (Simulation time: 2 hr 52 min 38 sec) 
Heartbeat CPU 0 instructions: 940000002 cycles: 1350025039 heartbeat IPC: 0.346109 cumulative IPC: 0.387435 (Simulation time: 2 hr 55 min 35 sec) 
Heartbeat CPU 0 instructions: 950000000 cycles: 1378919689 heartbeat IPC: 0.346085 cumulative IPC: 0.386409 (Simulation time: 2 hr 58 min 33 sec) 
Heartbeat CPU 0 instructions: 960000001 cycles: 1407806917 heartbeat IPC: 0.346174 cumulative IPC: 0.385435 (Simulation time: 3 hr 1 min 32 sec) 
Heartbeat CPU 0 instructions: 970000000 cycles: 1436700247 heartbeat IPC: 0.346101 cumulative IPC: 0.384505 (Simulation time: 3 hr 4 min 30 sec) 
Heartbeat CPU 0 instructions: 980000001 cycles: 1465594184 heartbeat IPC: 0.346093 cumulative IPC: 0.383618 (Simulation time: 3 hr 7 min 29 sec) 
Heartbeat CPU 0 instructions: 990000003 cycles: 1494487170 heartbeat IPC: 0.346105 cumulative IPC: 0.382772 (Simulation time: 3 hr 10 min 27 sec) 
Heartbeat CPU 0 instructions: 1000000000 cycles: 1523382872 heartbeat IPC: 0.346072 cumulative IPC: 0.381962 (Simulation time: 3 hr 13 min 26 sec) 
Heartbeat CPU 0 instructions: 1010000001 cycles: 1552271543 heartbeat IPC: 0.346156 cumulative IPC: 0.381188 (Simulation time: 3 hr 16 min 25 sec) 
Heartbeat CPU 0 instructions: 1020000002 cycles: 1581168298 heartbeat IPC: 0.34606 cumulative IPC: 0.380446 (Simulation time: 3 hr 19 min 22 sec) 
Heartbeat CPU 0 instructions: 1030000002 cycles: 1610062768 heartbeat IPC: 0.346087 cumulative IPC: 0.379735 (Simulation time: 3 hr 22 min 21 sec) 
Heartbeat CPU 0 instructions: 1040000003 cycles: 1638958753 heartbeat IPC: 0.346069 cumulative IPC: 0.379052 (Simulation time: 3 hr 25 min 18 sec) 
Heartbeat CPU 0 instructions: 1050000004 cycles: 1667852763 heartbeat IPC: 0.346093 cumulative IPC: 0.378396 (Simulation time: 3 hr 28 min 16 sec) 
Heartbeat CPU 0 instructions: 1060000004 cycles: 1696745686 heartbeat IPC: 0.346106 cumulative IPC: 0.377767 (Simulation time: 3 hr 32 min 40 sec) 
Heartbeat CPU 0 instructions: 1070000001 cycles: 1725639111 heartbeat IPC: 0.346099 cumulative IPC: 0.377162 (Simulation time: 3 hr 38 min 29 sec) 
Heartbeat CPU 0 instructions: 1080000004 cycles: 1754533117 heartbeat IPC: 0.346093 cumulative IPC: 0.376579 (Simulation time: 3 hr 41 min 48 sec) 
Heartbeat CPU 0 instructions: 1090000003 cycles: 1783423588 heartbeat IPC: 0.346135 cumulative IPC: 0.376018 (Simulation time: 3 hr 45 min 29 sec) 
Heartbeat CPU 0 instructions: 1100000002 cycles: 1812317643 heartbeat IPC: 0.346092 cumulative IPC: 0.375477 (Simulation time: 3 hr 48 min 40 sec) 
Heartbeat CPU 0 instructions: 1110000001 cycles: 1841212268 heartbeat IPC: 0.346085 cumulative IPC: 0.374955 (Simulation time: 3 hr 51 min 51 sec) 
Heartbeat CPU 0 instructions: 1120000000 cycles: 1870103563 heartbeat IPC: 0.346125 cumulative IPC: 0.374452 (Simulation time: 3 hr 55 min 36 sec) 
Heartbeat CPU 0 instructions: 1130000000 cycles: 1898992074 heartbeat IPC: 0.346158 cumulative IPC: 0.373967 (Simulation time: 3 hr 58 min 37 sec) 
Heartbeat CPU 0 instructions: 1140000002 cycles: 1927871768 heartbeat IPC: 0.346264 cumulative IPC: 0.3735 (Simulation time: 4 hr 1 min 44 sec) 
Heartbeat CPU 0 instructions: 1150000004 cycles: 1956759887 heartbeat IPC: 0.346163 cumulative IPC: 0.373047 (Simulation time: 4 hr 5 min 34 sec) 
Heartbeat CPU 0 instructions: 1160000001 cycles: 1985641025 heartbeat IPC: 0.346247 cumulative IPC: 0.37261 (Simulation time: 4 hr 8 min 50 sec) 
Heartbeat CPU 0 instructions: 1170000001 cycles: 2014528062 heartbeat IPC: 0.346176 cumulative IPC: 0.372186 (Simulation time: 4 hr 11 min 53 sec) 
Heartbeat CPU 0 instructions: 1180000002 cycles: 2043416709 heartbeat IPC: 0.346157 cumulative IPC: 0.371774 (Simulation time: 4 hr 14 min 58 sec) 
Heartbeat CPU 0 instructions: 1190000003 cycles: 2072304138 heartbeat IPC: 0.346171 cumulative IPC: 0.371376 (Simulation time: 4 hr 18 min 58 sec) 
Heartbeat CPU 0 instructions: 1200000000 cycles: 2091234876 heartbeat IPC: 0.528241 cumulative IPC: 0.372959 (Simulation time: 4 hr 21 min 17 sec) 
Heartbeat CPU 0 instructions: 1210000001 cycles: 2105089992 heartbeat IPC: 0.721755 cumulative IPC: 0.375515 (Simulation time: 4 hr 23 min 9 sec) 
Heartbeat CPU 0 instructions: 1220000003 cycles: 2126356933 heartbeat IPC: 0.470213 cumulative IPC: 0.376568 (Simulation time: 4 hr 25 min 45 sec) 
Heartbeat CPU 0 instructions: 1230000000 cycles: 2151956297 heartbeat IPC: 0.390635 cumulative IPC: 0.376754 (Simulation time: 4 hr 28 min 44 sec) 
Heartbeat CPU 0 instructions: 1240000004 cycles: 2180772637 heartbeat IPC: 0.347025 cumulative IPC: 0.376318 (Simulation time: 4 hr 31 min 53 sec) 
Heartbeat CPU 0 instructions: 1250000001 cycles: 2209596554 heartbeat IPC: 0.346934 cumulative IPC: 0.375894 (Simulation time: 4 hr 35 min 8 sec) 
Heartbeat CPU 0 instructions: 1260000004 cycles: 2238414709 heartbeat IPC: 0.347004 cumulative IPC: 0.375482 (Simulation time: 4 hr 38 min 17 sec) 
Heartbeat CPU 0 instructions: 1270000004 cycles: 2267235629 heartbeat IPC: 0.34697 cumulative IPC: 0.375082 (Simulation time: 4 hr 41 min 26 sec) 
Heartbeat CPU 0 instructions: 1280000002 cycles: 2296055225 heartbeat IPC: 0.346986 cumulative IPC: 0.374693 (Simulation time: 4 hr 44 min 34 sec) 
Heartbeat CPU 0 instructions: 1290000000 cycles: 2324873289 heartbeat IPC: 0.347005 cumulative IPC: 0.374315 (Simulation time: 4 hr 47 min 45 sec) 
Heartbeat CPU 0 instructions: 1300000003 cycles: 2353692541 heartbeat IPC: 0.34699 cumulative IPC: 0.373947 (Simulation time: 4 hr 50 min 59 sec) 
Heartbeat CPU 0 instructions: 1310000000 cycles: 2382512226 heartbeat IPC: 0.346985 cumulative IPC: 0.373588 (Simulation time: 4 hr 53 min 56 sec) 
Heartbeat CPU 0 instructions: 1320000002 cycles: 2411326646 heartbeat IPC: 0.347049 cumulative IPC: 0.37324 (Simulation time: 4 hr 56 min 52 sec) 
Heartbeat CPU 0 instructions: 1330000002 cycles: 2440150883 heartbeat IPC: 0.34693 cumulative IPC: 0.3729 (Simulation time: 4 hr 59 min 59 sec) 
Heartbeat CPU 0 instructions: 1340000001 cycles: 2468973636 heartbeat IPC: 0.346948 cumulative IPC: 0.372568 (Simulation time: 5 hr 5 min 17 sec) 
Heartbeat CPU 0 instructions: 1350000003 cycles: 2497789066 heartbeat IPC: 0.347036 cumulative IPC: 0.372246 (Simulation time: 5 hr 9 min 33 sec) 
Heartbeat CPU 0 instructions: 1360000004 cycles: 2526607708 heartbeat IPC: 0.346998 cumulative IPC: 0.371931 (Simulation time: 5 hr 12 min 28 sec) 
Heartbeat CPU 0 instructions: 1370000001 cycles: 2555422307 heartbeat IPC: 0.347046 cumulative IPC: 0.371625 (Simulation time: 5 hr 15 min 27 sec) 
Heartbeat CPU 0 instructions: 1380000001 cycles: 2584244262 heartbeat IPC: 0.346958 cumulative IPC: 0.371325 (Simulation time: 5 hr 18 min 44 sec) 
Heartbeat CPU 0 instructions: 1390000000 cycles: 2613064078 heartbeat IPC: 0.346983 cumulative IPC: 0.371032 (Simulation time: 5 hr 21 min 41 sec) 
Heartbeat CPU 0 instructions: 1400000003 cycles: 2641881103 heartbeat IPC: 0.347017 cumulative IPC: 0.370747 (Simulation time: 5 hr 24 min 36 sec) 
Heartbeat CPU 0 instructions: 1410000003 cycles: 2670697341 heartbeat IPC: 0.347027 cumulative IPC: 0.370469 (Simulation time: 5 hr 27 min 31 sec) 
Heartbeat CPU 0 instructions: 1420000001 cycles: 2699518198 heartbeat IPC: 0.346971 cumulative IPC: 0.370196 (Simulation time: 5 hr 30 min 36 sec) 
Heartbeat CPU 0 instructions: 1430000001 cycles: 2728338323 heartbeat IPC: 0.34698 cumulative IPC: 0.36993 (Simulation time: 5 hr 33 min 43 sec) 
Heartbeat CPU 0 instructions: 1440000001 cycles: 2757157624 heartbeat IPC: 0.34699 cumulative IPC: 0.36967 (Simulation time: 5 hr 36 min 48 sec) 
Heartbeat CPU 0 instructions: 1450000000 cycles: 2785972184 heartbeat IPC: 0.347047 cumulative IPC: 0.369417 (Simulation time: 5 hr 39 min 52 sec) 
Heartbeat CPU 0 instructions: 1460000004 cycles: 2814803954 heartbeat IPC: 0.34684 cumulative IPC: 0.369166 (Simulation time: 5 hr 43 min 3 sec) 
Heartbeat CPU 0 instructions: 1470000000 cycles: 2843622284 heartbeat IPC: 0.347001 cumulative IPC: 0.368923 (Simulation time: 5 hr 46 min 6 sec) 
Heartbeat CPU 0 instructions: 1480000004 cycles: 2872440213 heartbeat IPC: 0.347006 cumulative IPC: 0.368686 (Simulation time: 5 hr 49 min 10 sec) 
Heartbeat CPU 0 instructions: 1490000002 cycles: 2901260602 heartbeat IPC: 0.346977 cumulative IPC: 0.368453 (Simulation time: 5 hr 52 min 45 sec) 
Heartbeat CPU 0 instructions: 1500000003 cycles: 2930075573 heartbeat IPC: 0.347042 cumulative IPC: 0.368226 (Simulation time: 5 hr 55 min 45 sec) 
Heartbeat CPU 0 instructions: 1510000004 cycles: 2958898846 heartbeat IPC: 0.346942 cumulative IPC: 0.368002 (Simulation time: 5 hr 58 min 42 sec) 
Heartbeat CPU 0 instructions: 1520000000 cycles: 2987707429 heartbeat IPC: 0.347119 cumulative IPC: 0.367785 (Simulation time: 6 hr 1 min 40 sec) 
Heartbeat CPU 0 instructions: 1530000002 cycles: 3016513589 heartbeat IPC: 0.347148 cumulative IPC: 0.367573 (Simulation time: 6 hr 4 min 35 sec) 
Heartbeat CPU 0 instructions: 1540000004 cycles: 3045321267 heartbeat IPC: 0.34713 cumulative IPC: 0.367365 (Simulation time: 6 hr 7 min 31 sec) 
Heartbeat CPU 0 instructions: 1550000001 cycles: 3074130052 heartbeat IPC: 0.347116 cumulative IPC: 0.367161 (Simulation time: 6 hr 10 min 26 sec) 
Heartbeat CPU 0 instructions: 1560000003 cycles: 3102934298 heartbeat IPC: 0.347171 cumulative IPC: 0.366962 (Simulation time: 6 hr 13 min 21 sec) 
Heartbeat CPU 0 instructions: 1570000002 cycles: 3131740251 heartbeat IPC: 0.34715 cumulative IPC: 0.366766 (Simulation time: 6 hr 16 min 17 sec) 
Heartbeat CPU 0 instructions: 1580000000 cycles: 3160539624 heartbeat IPC: 0.34723 cumulative IPC: 0.366575 (Simulation time: 6 hr 19 min 13 sec) 
Heartbeat CPU 0 instructions: 1590000000 cycles: 3179502499 heartbeat IPC: 0.527346 cumulative IPC: 0.367603 (Simulation time: 6 hr 21 min 19 sec) 
Heartbeat CPU 0 instructions: 1600000002 cycles: 3189225699 heartbeat IPC: 1.02847 cumulative IPC: 0.369763 (Simulation time: 6 hr 22 min 38 sec) 
Heartbeat CPU 0 instructions: 1610000003 cycles: 3207020483 heartbeat IPC: 0.561962 cumulative IPC: 0.370906 (Simulation time: 6 hr 24 min 45 sec) 
Heartbeat CPU 0 instructions: 1620000003 cycles: 3230493038 heartbeat IPC: 0.426029 cumulative IPC: 0.371335 (Simulation time: 6 hr 27 min 24 sec) 
Heartbeat CPU 0 instructions: 1630000003 cycles: 3254057191 heartbeat IPC: 0.424373 cumulative IPC: 0.371746 (Simulation time: 6 hr 30 min 4 sec) 
Heartbeat CPU 0 instructions: 1640000001 cycles: 3269207609 heartbeat IPC: 0.660048 cumulative IPC: 0.373176 (Simulation time: 6 hr 31 min 46 sec) 
Heartbeat CPU 0 instructions: 1650000000 cycles: 3276810910 heartbeat IPC: 1.31522 cumulative IPC: 0.375515 (Simulation time: 6 hr 32 min 40 sec) 
Heartbeat CPU 0 instructions: 1660000003 cycles: 3287320964 heartbeat IPC: 0.95147 cumulative IPC: 0.377485 (Simulation time: 6 hr 34 min 5 sec) 
Heartbeat CPU 0 instructions: 1670000001 cycles: 3302583173 heartbeat IPC: 0.655213 cumulative IPC: 0.378857 (Simulation time: 6 hr 35 min 56 sec) 
Heartbeat CPU 0 instructions: 1680000004 cycles: 3319640061 heartbeat IPC: 0.586274 cumulative IPC: 0.379997 (Simulation time: 6 hr 37 min 58 sec) 
Heartbeat CPU 0 instructions: 1690000003 cycles: 3344032055 heartbeat IPC: 0.409971 cumulative IPC: 0.38023 (Simulation time: 6 hr 40 min 34 sec) 
Heartbeat CPU 0 instructions: 1700000000 cycles: 3372926453 heartbeat IPC: 0.346088 cumulative IPC: 0.379918 (Simulation time: 6 hr 43 min 32 sec) 
Heartbeat CPU 0 instructions: 1710000001 cycles: 3401817635 heartbeat IPC: 0.346126 cumulative IPC: 0.379612 (Simulation time: 6 hr 46 min 30 sec) 
Heartbeat CPU 0 instructions: 1720000003 cycles: 3430711399 heartbeat IPC: 0.346096 cumulative IPC: 0.379311 (Simulation time: 6 hr 49 min 27 sec) 
Heartbeat CPU 0 instructions: 1730000003 cycles: 3459606397 heartbeat IPC: 0.346081 cumulative IPC: 0.379015 (Simulation time: 6 hr 52 min 24 sec) 
Heartbeat CPU 0 instructions: 1740000001 cycles: 3488498473 heartbeat IPC: 0.346116 cumulative IPC: 0.378725 (Simulation time: 6 hr 55 min 21 sec) 
Heartbeat CPU 0 instructions: 1750000002 cycles: 3517401667 heartbeat IPC: 0.345983 cumulative IPC: 0.378438 (Simulation time: 6 hr 58 min 18 sec) 
Heartbeat CPU 0 instructions: 1760000002 cycles: 3546296155 heartbeat IPC: 0.346087 cumulative IPC: 0.378157 (Simulation time: 7 hr 1 min 15 sec) 
Heartbeat CPU 0 instructions: 1770000001 cycles: 3575187257 heartbeat IPC: 0.346127 cumulative IPC: 0.377882 (Simulation time: 7 hr 4 min 12 sec) 
Heartbeat CPU 0 instructions: 1780000000 cycles: 3604085148 heartbeat IPC: 0.346046 cumulative IPC: 0.377611 (Simulation time: 7 hr 7 min 9 sec) 
Heartbeat CPU 0 instructions: 1790000003 cycles: 3632977639 heartbeat IPC: 0.346111 cumulative IPC: 0.377344 (Simulation time: 7 hr 10 min 7 sec) 
Heartbeat CPU 0 instructions: 1800000004 cycles: 3661872366 heartbeat IPC: 0.346084 cumulative IPC: 0.377082 (Simulation time: 7 hr 13 min 4 sec) 
Heartbeat CPU 0 instructions: 1810000001 cycles: 3690760498 heartbeat IPC: 0.346163 cumulative IPC: 0.376826 (Simulation time: 7 hr 16 min 2 sec) 
Heartbeat CPU 0 instructions: 1820000001 cycles: 3719651566 heartbeat IPC: 0.346128 cumulative IPC: 0.376573 (Simulation time: 7 hr 18 min 59 sec) 
Heartbeat CPU 0 instructions: 1830000003 cycles: 3748543176 heartbeat IPC: 0.346121 cumulative IPC: 0.376324 (Simulation time: 7 hr 21 min 56 sec) 
Heartbeat CPU 0 instructions: 1840000002 cycles: 3777439435 heartbeat IPC: 0.346066 cumulative IPC: 0.376078 (Simulation time: 7 hr 24 min 53 sec) 
Heartbeat CPU 0 instructions: 1850000002 cycles: 3806331206 heartbeat IPC: 0.346119 cumulative IPC: 0.375837 (Simulation time: 7 hr 27 min 51 sec) 
Heartbeat CPU 0 instructions: 1860000003 cycles: 3835227378 heartbeat IPC: 0.346067 cumulative IPC: 0.3756 (Simulation time: 7 hr 30 min 49 sec) 
Heartbeat CPU 0 instructions: 1870000000 cycles: 3864118373 heartbeat IPC: 0.346128 cumulative IPC: 0.375366 (Simulation time: 7 hr 33 min 48 sec) 
Heartbeat CPU 0 instructions: 1880000002 cycles: 3893013429 heartbeat IPC: 0.34608 cumulative IPC: 0.375136 (Simulation time: 7 hr 36 min 45 sec) 
Heartbeat CPU 0 instructions: 1890000003 cycles: 3921912024 heartbeat IPC: 0.346038 cumulative IPC: 0.37491 (Simulation time: 7 hr 39 min 43 sec) 
Heartbeat CPU 0 instructions: 1900000000 cycles: 3950803272 heartbeat IPC: 0.346125 cumulative IPC: 0.374687 (Simulation time: 7 hr 42 min 42 sec) 
Heartbeat CPU 0 instructions: 1910000000 cycles: 3979697957 heartbeat IPC: 0.346084 cumulative IPC: 0.374467 (Simulation time: 7 hr 45 min 40 sec) 
Heartbeat CPU 0 instructions: 1920000001 cycles: 4008588992 heartbeat IPC: 0.346128 cumulative IPC: 0.374252 (Simulation time: 7 hr 48 min 39 sec) 
Heartbeat CPU 0 instructions: 1930000002 cycles: 4037485797 heartbeat IPC: 0.346059 cumulative IPC: 0.374039 (Simulation time: 7 hr 51 min 37 sec) 
Heartbeat CPU 0 instructions: 1940000004 cycles: 4066377481 heartbeat IPC: 0.34612 cumulative IPC: 0.373829 (Simulation time: 7 hr 54 min 35 sec) 
Heartbeat CPU 0 instructions: 1950000003 cycles: 4095267083 heartbeat IPC: 0.346145 cumulative IPC: 0.373623 (Simulation time: 7 hr 57 min 33 sec) 
Heartbeat CPU 0 instructions: 1960000003 cycles: 4124163812 heartbeat IPC: 0.34606 cumulative IPC: 0.373419 (Simulation time: 8 hr 0 min 31 sec) 
Heartbeat CPU 0 instructions: 1970000000 cycles: 4153057767 heartbeat IPC: 0.346093 cumulative IPC: 0.373219 (Simulation time: 8 hr 3 min 28 sec) 
Heartbeat CPU 0 instructions: 1980000001 cycles: 4181942351 heartbeat IPC: 0.346205 cumulative IPC: 0.373022 (Simulation time: 8 hr 6 min 25 sec) 
Heartbeat CPU 0 instructions: 1990000003 cycles: 4210825221 heartbeat IPC: 0.346226 cumulative IPC: 0.372829 (Simulation time: 8 hr 9 min 22 sec) 
*** Reached end of trace: traces/410.bwaves-1963B.champsimtrace.xz
Heartbeat CPU 0 instructions: 2000000001 cycles: 4239710424 heartbeat IPC: 0.346198 cumulative IPC: 0.372638 (Simulation time: 8 hr 12 min 20 sec) 
Finished CPU 0 instructions: 1500000001 cycles: 4025360460 cumulative IPC: 0.372637 (Simulation time: 8 hr 12 min 20 sec) 

ChampSim completed all CPUs

Region of Interest Statistics

CPU 0 cumulative IPC: 0.372637 instructions: 1500000001 cycles: 4025360460
cpu0_DTLB TOTAL     ACCESS:  481156277  HIT:  480114700  MISS:    1041577
cpu0_DTLB LOAD      ACCESS:  442418965  HIT:  441537732  MISS:     881233
cpu0_DTLB RFO       ACCESS:   38737312  HIT:   38576968  MISS:     160344
cpu0_DTLB PREFETCH  ACCESS:          0  HIT:          0  MISS:          0
cpu0_DTLB WRITEBACK ACCESS:          0  HIT:          0  MISS:          0
cpu0_DTLB TRANSLATION ACCESS:          0  HIT:          0  MISS:          0
cpu0_DTLB PREFETCH  REQUESTED:          0  ISSUED:          0  USEFUL:          0  USELESS:          0
cpu0_DTLB AVERAGE MISS LATENCY: 15.0122 cycles
cpu0_ITLB TOTAL     ACCESS:  142465139  HIT:  142465139  MISS:          0
cpu0_ITLB LOAD      ACCESS:  142465139  HIT:  142465139  MISS:          0
cpu0_ITLB RFO       ACCESS:          0  HIT:          0  MISS:          0
cpu0_ITLB PREFETCH  ACCESS:          0  HIT:          0  MISS:          0
cpu0_ITLB WRITEBACK ACCESS:          0  HIT:          0  MISS:          0
cpu0_ITLB TRANSLATION ACCESS:          0  HIT:          0  MISS:          0
cpu0_ITLB PREFETCH  REQUESTED:          0  ISSUED:          0  USEFUL:          0  USELESS:          0
cpu0_ITLB AVERAGE MISS LATENCY: -nan cycles
cpu0_L1I TOTAL     ACCESS:        302  HIT:        268  MISS:         34
cpu0_L1I LOAD      ACCESS:        302  HIT:        268  MISS:         34
cpu0_L1I RFO       ACCESS:          0  HIT:          0  MISS:          0
cpu0_L1I PREFETCH  ACCESS:          0  HIT:          0  MISS:          0
cpu0_L1I WRITEBACK ACCESS:          0  HIT:          0  MISS:          0
cpu0_L1I TRANSLATION ACCESS:          0  HIT:          0  MISS:          0
cpu0_L1I PREFETCH  REQUESTED:          0  ISSUED:          0  USEFUL:          0  USELESS:          0
cpu0_L1I AVERAGE MISS LATENCY: 294.912 cycles
cpu0_STLB TOTAL     ACCESS:    1041577  HIT:     611908  MISS:     429669
cpu0_STLB LOAD      ACCESS:     881233  HIT:     460905  MISS:     420328
cpu0_STLB RFO       ACCESS:     160344  HIT:     151003  MISS:       9341
cpu0_STLB PREFETCH  ACCESS:          0  HIT:          0  MISS:          0
cpu0_STLB WRITEBACK ACCESS:          0  HIT:          0  MISS:          0
cpu0_STLB TRANSLATION ACCESS:          0  HIT:          0  MISS:          0
cpu0_STLB PREFETCH  REQUESTED:          0  ISSUED:          0  USEFUL:          0  USELESS:          0
cpu0_STLB AVERAGE MISS LATENCY: 14.5378 cycles
cpu0_L1D TOTAL     ACCESS:  544262654  HIT:  515007587  MISS:   29255067
cpu0_L1D LOAD      ACCESS:  440003168  HIT:  411374431  MISS:   28628737
cpu0_L1D RFO       ACCESS:  103829829  HIT:  103232418  MISS:     597411
cpu0_L1D PREFETCH  ACCESS:          0  HIT:          0  MISS:          0
cpu0_L1D WRITEBACK ACCESS:          0  HIT:          0  MISS:          0
cpu0_L1D TRANSLATION ACCESS:     429657  HIT:     400738  MISS:      28919
cpu0_L1D PREFETCH  REQUESTED:          0  ISSUED:          0  USEFUL:          0  USELESS:          0
cpu0_L1D AVERAGE MISS LATENCY: 1042.03 cycles
cpu0_L2C TOTAL     ACCESS:   31036034  HIT:    3006392  MISS:   28029642
cpu0_L2C LOAD      ACCESS:   28628771  HIT:    1196968  MISS:   27431803
cpu0_L2C RFO       ACCESS:     597411  HIT:          0  MISS:     597411
cpu0_L2C PREFETCH  ACCESS:          0  HIT:          0  MISS:          0
cpu0_L2C WRITEBACK ACCESS:    1780933  HIT:    1780881  MISS:         52
cpu0_L2C TRANSLATION ACCESS:      28919  HIT:      28543  MISS:        376
cpu0_L2C PREFETCH  REQUESTED:          0  ISSUED:          0  USEFUL:          0  USELESS:          0
cpu0_L2C AVERAGE MISS LATENCY: 1075.96 cycles
LLC TOTAL     ACCESS:   29810140  HIT:    1784737  MISS:   28025403
LLC LOAD      ACCESS:   27431803  HIT:       4172  MISS:   27427631
LLC RFO       ACCESS:     597411  HIT:          0  MISS:     597411
LLC PREFETCH  ACCESS:          0  HIT:          0  MISS:          0
LLC WRITEBACK ACCESS:    1780550  HIT:    1780476  MISS:         74
LLC TRANSLATION ACCESS:        376  HIT:         89  MISS:        287
LLC PREFETCH  REQUESTED:          0  ISSUED:          0  USEFUL:          0  USELESS:          0
LLC AVERAGE MISS LATENCY: 1055.12 cycles
~~~~~~~~~~Reuse Distance Profiler output~~~~~~~~~~
0	46917600	4434208
1	18892672	9502576
2	27450064	21570224
3	20786928	18653024
4	16683136	14506864
5	19834544	17926640
6	20716688	18285632
7	18186288	14728576
8	18952992	15435280
9	20057328	18101152
10	20275040	17372896
11	14290432	11797984
12	14350640	11608800
13	12893024	10353648
14	10935216	9154512
15	13928624	11969200
16	13081664	12042368
17	20233664	19560192
18	44817680	44295712
19	13384704	12138944
20	9446480	8679456
21	6997392	6271856
22	6512272	5832016
23	8117024	6316288
24	5739024	5307456
25	4864960	4345824
26	5327536	4819312
27	3467040	3187424
28	3740672	3370704
29	3853584	3499936
30	3038848	2542176
31	4509152	4048560
32	4139648	3450496
33	3492608	3243600
34	3722528	3430448
35	3208336	2932800
36	3089728	2734320
37	2873008	2474752
38	2469728	2176992
39	2317984	1725904
40	2738528	2443744
41	3591040	3164240
42	2201856	1905104
43	1969616	1505888
44	2550352	1900640
45	2190416	1844240
46	1828384	1581584
47	2627856	1889392
48	1747552	1291248
49	1980256	1622560
50	1409520	1127968
51	1763360	1474512
52	866576	748320
53	1637792	1571808
54	991264	830976
55	1426304	1289392
56	1430752	1301216
57	1586128	1197712
58	1815696	1479440
59	1961856	1397696
60	2059152	1487216
61	2340704	1882880
62	2728288	2089264
63	2641408	2086960
64	5596000	4015056
66	4668688	4002592
68	5196160	4563344
70	6182784	5098256
72	4699664	4218512
74	6107584	5379520
76	4205616	3658352
78	3820144	3125200
80	3927344	3086880
82	2446768	1832416
84	3891264	3172944
86	4695152	4073328
88	4617120	3718896
90	5806608	4768464
92	6616944	6114272
94	9292624	8589440
96	8792400	8034352
98	10451408	9567664
100	9720288	9123968
102	10435968	9982592
104	6733888	6362000
106	3802000	3374416
108	4984144	4164656
110	4991280	3957152
112	5200704	3795216
114	4726000	3238416
116	6491872	4961216
118	6416112	4835600
120	6494880	5360256
122	4830960	4079600
124	1786896	1557488
126	693952	682544
128	1663776	1376096
132	1543088	1433824
136	1209472	962800
140	1956736	1845792
144	1300288	1245744
148	1411984	1410592
152	1039968	1036176
156	358976	358896
160	366688	366224
164	689856	689776
168	471168	471104
172	137456	137440
176	64176	64176
180	198432	198016
184	48576	48544
188	2560	2544
192	1968	1968
196	3696	3696
200	2032	2032
204	3600	3600
208	2240	2240
212	2512	2512
216	3328	3328
220	2640	2640
224	4992	4992
228	1728	1728
232	17296	17296
236	22704	22704
240	3520	3520
244	19280	19280
248	4192	4192
252	2384	2384
256	80	80
264	32	32
272	9936	9936
280	1808	1808
288	368	368
296	560	560
304	272	272
312	0	0
320	0	0
328	0	0
336	0	0
344	0	0
352	0	0
360	0	0
368	0	0
376	0	0
384	0	0
392	0	0
400	0	0
408	0	0
416	0	0
424	0	0
432	0	0
440	0	0
448	0	0
456	0	0
464	0	0
472	0	0
480	2848	2848
488	6624	6624
496	165664	165664
504	77344	77344
512	513536	513536
528	1235312	1235312
544	844528	844528
560	34720	34720
576	4608	4608
592	12944	12944
608	282176	282176
624	684576	684576
640	102560	102560
656	14896	14896
672	5872	5872
688	992	992
704	0	0
720	16	16
736	0	0
752	0	0
768	0	0
784	0	0
800	0	0
816	0	0
832	4128	4128
848	16	16
864	0	0
880	1920	1920
896	1824	1824
912	0	0
928	0	0
944	0	0
960	0	0
976	0	0
992	0	0
1008	0	0
1024	10048	10048
1056	8496	8496
1088	18896	18896
1120	13920	13920
1152	5696	5696
1184	1168	1168
1216	384	384
1248	0	0
1280	0	0
1312	0	0
1344	0	0
1376	0	0
1408	0	0
1440	0	0
1472	0	0
1504	0	0
1536	0	0
1568	0	0
1600	0	0
1632	0	0
1664	0	0
1696	0	0
1728	0	0
1760	0	0
1792	0	0
1824	0	0
1856	0	0
1888	0	0
1920	0	0
1952	0	0
1984	0	0
2016	0	0
2048	0	0
2112	0	0
2176	0	0
2240	0	0
2304	0	0
2368	0	0
2432	0	0
2496	0	0
2560	0	0
2624	0	0
2688	0	0
2752	0	0
2816	0	0
2880	0	0
2944	0	0
3008	0	0
3072	0	0
3136	0	0
3200	0	0
3264	0	0
3328	0	0
3392	0	0
3456	0	0
3520	0	0
3584	0	0
3648	0	0
3712	0	0
3776	0	0
3840	0	0
3904	0	0
3968	0	0
4032	0	0
4096	0	0
4224	0	0
4352	0	0
4480	0	0
4608	0	0
4736	0	0
4864	0	0
4992	0	0
5120	0	0
5248	0	0
5376	0	0
5504	0	0
5632	0	0
5760	0	0
5888	0	0
6016	0	0
6144	0	0
6272	0	0
6400	0	0
6528	0	0
6656	0	0
6784	0	0
6912	0	0
7040	528	528
7168	0	0
7296	0	0
7424	0	0
7552	0	0
7680	0	0
7808	0	0
7936	0	0
8064	0	0
8192	0	0
8448	0	0
8704	0	0
8960	0	0
9216	0	0
9472	0	0
9728	0	0
9984	0	0
10240	0	0
10496	0	0
10752	0	0
11008	0	0
11264	0	0
11520	0	0
11776	0	0
12032	0	0
12288	0	0
12544	0	0
12800	0	0
13056	0	0
13312	0	0
13568	0	0
13824	0	0
14080	0	0
14336	0	0
14592	16	16
14848	0	0
15104	48	48
15360	336	336
15616	0	0
15872	272	272
16128	16	16
16384	0	0
16896	0	0
17408	0	0
17920	160	160
18432	16	16
18944	0	0
19456	0	0
19968	0	0
20480	0	0
20992	16	16
21504	0	0
22016	0	0
22528	0	0
23040	0	0
23552	0	0
24064	0	0
24576	0	0
25088	0	0
25600	0	0
26112	0	0
26624	0	0
27136	0	0
27648	0	0
28160	0	0
28672	0	0
29184	0	0
29696	0	0
30208	0	0
30720	0	0
31232	0	0
31744	0	0
32256	240	240
32768	480144	480144
33792	711312	711312
34816	848	848
35840	32	32
36864	0	0
37888	16	16
38912	87728	87728
39936	347392	347392
40960	7984	7984
41984	224	224
43008	128	128
44032	16	16
45056	0	0
46080	16	16
47104	0	0
48128	0	0
49152	16	16
50176	0	0
51200	0	0
52224	0	0
53248	0	0
54272	16	16
55296	0	0
56320	16	16
57344	32	32
58368	0	0
59392	16	16
60416	0	0
61440	0	0
62464	16	16
63488	0	0
64512	16	16
65536	16	16
67584	128	128
69632	32	32
71680	32	32
73728	64	64
75776	0	0
77824	0	0
79872	0	0
81920	0	0
83968	32	32
86016	16	16
88064	0	0
90112	0	0
92160	0	0
94208	32	32
96256	16	16
98304	16	16
100352	0	0
102400	0	0
104448	0	0
106496	0	0
108544	0	0
110592	16	16
112640	16	16
114688	48	48
116736	0	0
118784	32	32
120832	16	16
122880	32	32
124928	0	0
126976	16	16
129024	0	0
131072	48	48
135168	16	16
139264	32	32
143360	0	0
147456	64	64
151552	16	16
155648	64	64
159744	48	48
163840	32	32
167936	48	48
172032	32	32
176128	32	32
180224	16	16
184320	16	16
188416	32	32
192512	32	32
196608	16	16
200704	32	32
204800	16	16
208896	16	16
212992	16	16
217088	0	0
221184	16	16
225280	16	16
229376	0	0
233472	32	32
237568	16	16
241664	0	0
245760	16	16
249856	48	48
253952	16	16
258048	16	16
262144	64	64
270336	48	48
278528	96	96
286720	144	144
294912	96	96
303104	128	128
311296	192	192
319488	64	64
327680	64	64
335872	64	64
344064	48	48
352256	48	48
360448	32	32
368640	64	64
376832	112	112
385024	80	80
393216	96	96
401408	32	32
409600	80	80
417792	48	48
425984	48	48
434176	64	64
442368	64	64
450560	1200	1200
458752	5712	5712
466944	5456	5456
475136	5504	5504
483328	5440	5440
491520	5360	5360
499712	5536	5536
507904	5584	5584
516096	5824	5824
524288	11072	11072
540672	11248	11248
557056	11184	11184
573440	10640	10640
589824	11136	11136
606208	10848	10848
622592	11120	11120
638976	10992	10992
655360	11456	11456
671744	11136	11136
688128	11968	11968
704512	11408	11408
720896	10656	10656
737280	10816	10816
753664	11344	11344
770048	11232	11232
786432	10432	10432
802816	11392	11392
819200	10112	10112
835584	12288	12288
851968	12096	12096
868352	12272	12272
884736	13360	13360
901120	12480	12480
917504	12784	12784
933888	11712	11712
950272	11024	11024
966656	10608	10608
983040	13632	13632
999424	14928	14928
1015808	8592	8592
1032192	8016	8016
1048576	15456	15456
1081344	15568	15568
1114112	15280	15280
1146880	16288	16288
1179648	21072	21072
1212416	20352	20352
1245184	20752	20752
1277952	20416	20416
1310720	20384	20384
1343488	20368	20368
1376256	20736	20736
1409024	20736	20736
1441792	20304	20304
1474560	20736	20736
1507328	20880	20880
1540096	20656	20656
1572864	20128	20128
1605632	20720	20720
1638400	19792	19792
1671168	21312	21312
1703936	20416	20416
1736704	20288	20288
1769472	19776	19776
1802240	20288	20288
1835008	20944	20944
1867776	20112	20112
1900544	20576	20576
1933312	20640	20640
1966080	20208	20208
1998848	20544	20544
2031616	20800	20800
2064384	20512	20512
2097152	41024	41024
2162688	49440	49440
2228224	1180240	1180240
2293760	49264	49264
2359296	31344	31344
2424832	31152	31152
2490368	31184	31184
2555904	38192	38192
2621440	46880	46880
2686976	466720	466704
2752512	26480	26288
2818048	26672	26544
2883584	25792	25792
2949120	26608	26608
3014656	25216	25216
3080192	27184	26944
3145728	25696	25664
3211264	26528	26528
3276800	25504	25488
3342336	25568	25328
3407872	25120	24864
3473408	26368	26368
3538944	25696	25696
3604480	26208	26064
3670016	24800	24592
3735552	26864	26768
3801088	26208	25984
3866624	27152	27040
3932160	23408	23408
3997696	18624	18608
4063232	19344	19168
4128768	18080	17840
4194304	54528	54032
4325376	60384	59824
4456448	59680	59344
4587520	56608	56320
4718592	25216	25072
4849664	25760	25168
4980736	25808	25696
5111808	24128	24096
5242880	24144	23872
5373952	24192	23888
5505024	25552	25152
5636096	24448	24448
5767168	25040	24608
5898240	23696	23392
6029312	24640	24048
6160384	3984	3728
6291456	1856	1312
6422528	1776	1504
6553600	1968	1328
6684672	1920	1536
6815744	1728	1376
6946816	1760	1472
7077888	2144	1472
7208960	2304	1872
7340032	1552	1552
7471104	1824	1664
7602176	1360	1232
7733248	1856	1440
7864320	1328	1312
7995392	1936	1760
8126464	1632	1392
8257536	2000	1488
8388608	3360	3040
8650752	4400	3408
8912896	3776	3024
9175040	3760	2912
9437184	4096	3600
9699328	3568	2928
9961472	3584	2768
10223616	3584	2896
10485760	3424	2944
10747904	3216	2784
11010048	3104	2576
11272192	3792	3536
11534336	3504	2800
11796480	4320	3568
12058624	3072	2640
12320768	3408	2704
12582912	3680	3168
12845056	3888	3088
13107200	3136	2848
13369344	3456	2928
13631488	3552	3104
13893632	3184	2832
14155776	3152	2800
14417920	3696	3152
14680064	3248	2592
14942208	3152	2496
15204352	3520	2720
15466496	3744	2912
15728640	3472	2992
15990784	3680	3216
16252928	3392	2768
16515072	3760	3024
16777216	6704	5616
17301504	7600	5888
17825792	7232	6096
18350080	7328	6160
18874368	6512	5648
19398656	7136	6000
19922944	6592	5904
20447232	6880	5952
20971520	7296	6176
21495808	7568	6144
22020096	6864	5952
22544384	7920	6912
23068672	7680	6064
23592960	6576	5600
24117248	7264	6192
24641536	7360	6240
25165824	8128	6880
25690112	6576	5680
26214400	6704	5264
26738688	7296	6000
27262976	6832	5808
27787264	7280	6096
28311552	8176	6384
28835840	6400	5312
29360128	6880	5600
29884416	7184	6064
30408704	7632	6192
30932992	7392	6080
31457280	6848	5632
31981568	6704	5216
32505856	7792	6592
33030144	5920	5024
33554432	15088	12512
34603008	14400	11728
35651584	13824	11680
36700160	14400	11648
37748736	14432	11760
38797312	14160	11824
39845888	14576	11696
40894464	14640	11888
41943040	14352	12336
42991616	14336	11568
44040192	13872	11616
45088768	14064	11344
46137344	13904	11696
47185920	14832	12192
48234496	15520	12592
49283072	13136	10960
50331648	14016	11456
51380224	13232	11008
52428800	13824	11152
53477376	14224	11696
54525952	13200	10832
55574528	13904	11136
56623104	13808	11184
57671680	14656	12064
58720256	13872	11296
59768832	14704	12160
60817408	14720	12256
61865984	13312	11056
62914560	15040	12720
63963136	13952	11280
65011712	13664	11392
66060288	13888	11376
67108864	30448	25168
69206016	30592	26688
71303168	27168	23184
73400320	28016	23872
75497472	28400	22800
77594624	29008	23808
79691776	28080	23664
81788928	27616	23056
83886080	29472	24112
85983232	29424	24896
88080384	27824	22912
90177536	30192	24992
92274688	30800	25280
94371840	29744	24192
96468992	29632	24608
98566144	26336	21728
100663296	28336	23536
102760448	29264	24256
104857600	29424	24672
106954752	28992	23456
109051904	28832	24016
111149056	28256	23696
113246208	27344	22640
115343360	27360	22608
117440512	29088	22816
119537664	29504	24624
121634816	27376	23136
123731968	29184	23808
125829120	27488	22656
127926272	27648	22960
130023424	22992	20144
132120576	23216	20336
134217728	46864	41088
138412032	49856	44176
142606336	38064	32192
146800640	6175680	6175248
150994944	118704	118704
155189248	9882368	9882368
159383552	892832	888240
163577856	1693536	1688752
167772160	1116592	1111824
171966464	881408	876192
176160768	884832	880064
180355072	2218480	2213712
184549376	14528	9552
188743680	13648	8864
192937984	13376	8816
197132288	14464	9136
201326592	14160	9312
205520896	13536	9040
209715200	14016	8768
213909504	14608	9680
218103808	13296	8720
222298112	13872	9136
226492416	15168	9568
230686720	13952	8240
234881024	14384	9072
239075328	13776	8688
243269632	14256	9232
247463936	13280	8560
251658240	13360	8752
255852544	13728	8992
260046848	13616	8608
264241152	14144	9280
268435456	28480	18752
276824064	28640	18672
285212672	27376	17680
293601280	19200	9504
301989888	176048	175776
310378496	8096	8096
318767104	8144	8144
327155712	5408	5408
335544320	0	0
343932928	0	0
352321536	0	0
360710144	0	0
369098752	0	0
377487360	0	0
385875968	0	0
394264576	0	0
402653184	0	0
411041792	0	0
419430400	0	0
427819008	0	0
436207616	0	0
444596224	0	0
452984832	0	0
461373440	0	0
469762048	0	0
478150656	0	0
486539264	0	0
494927872	0	0
503316480	0	0
511705088	0	0
520093696	0	0
528482304	0	0
536870912	0	0
553648128	0	0
570425344	0	0
587202560	0	0
603979776	0	0
620756992	0	0
637534208	0	0
654311424	0	0
671088640	0	0
687865856	0	0
704643072	0	0
721420288	0	0
738197504	0	0
754974720	0	0
771751936	0	0
788529152	0	0
805306368	0	0
822083584	0	0
838860800	0	0
855638016	0	0
872415232	0	0
889192448	0	0
905969664	0	0
922746880	0	0
939524096	0	0
956301312	0	0
973078528	0	0
989855744	0	0
1006632960	0	0
1023410176	0	0
1040187392	0	0
1056964608	0	0
1073741824	0	0
1107296256	0	0
1140850688	0	0
1174405120	0	0
1207959552	0	0
1241513984	0	0
1275068416	0	0
1308622848	0	0
1342177280	0	0
1375731712	0	0
1409286144	0	0
1442840576	0	0
1476395008	0	0
1509949440	0	0
1543503872	0	0
1577058304	0	0
1610612736	0	0
1644167168	0	0
1677721600	0	0
1711276032	0	0
1744830464	0	0
1778384896	0	0
1811939328	0	0
1845493760	0	0
1879048192	0	0
1912602624	0	0
1946157056	0	0
1979711488	0	0
2013265920	0	0
2046820352	0	0
2080374784	0	0
2113929216	0	0
2147483648	0	0
2214592512	0	0
2281701376	0	0
2348810240	0	0
2415919104	0	0
2483027968	0	0
2550136832	0	0
2617245696	0	0
2684354560	0	0
2751463424	0	0
2818572288	0	0
2885681152	0	0
2952790016	0	0
3019898880	0	0
3087007744	0	0
3154116608	0	0
3221225472	0	0
3288334336	0	0
3355443200	0	0
3422552064	0	0
3489660928	0	0
3556769792	0	0
3623878656	0	0
3690987520	0	0
3758096384	0	0
3825205248	0	0
3892314112	0	0
3959422976	0	0
4026531840	0	0
4093640704	0	0
4160749568	0	0
4227858432	0	0
~~~~~~~~~~Reuse Distance Profiler output end~~~~~~~~~~

DRAM Statistics
 CHANNEL 0
 RQ ROW_BUFFER_HIT:     273975  ROW_BUFFER_MISS:   27751107
 DBUS AVG_CONGESTED_CYCLE:      3.972
 WQ ROW_BUFFER_HIT:     168527  ROW_BUFFER_MISS:    1611959  FULL:          0


CPU 0 Branch Prediction Accuracy: 72.2249% MPKI: 11.379 Average ROB Occupancy at Mispredict: 259.123
Branch type MPKI
BRANCH_DIRECT_JUMP: 1.06667e-05
BRANCH_INDIRECT: 0
BRANCH_CONDITIONAL: 11.379
BRANCH_DIRECT_CALL: 6.66667e-07
BRANCH_INDIRECT_CALL: 0
BRANCH_RETURN: 1.33333e-06

