
*** ChampSim Multicore Out-of-Order Simulator ***

Warmup Instructions: 500000000
Simulation Instructions: 1500000010
Number of CPUs: 1
Off-chip DRAM Size: 4 GiB Channels: 1 Width: 64-bit Data Rate: 3200 MT/s

VirtualMemory physical capacity: 8588881920 num_ppages: 2096895
VirtualMemory page size: 4096 log2_page_size: 12

CPU 0 runs traces/429.mcf-184B.champsimtrace.xz
CPU 0 Bimodal branch predictor
Basic BTB sets: 1024 ways: 8 indirect buffer size: 4096 RAS size: 64
Initializing LRU.
Initializing LRU.
Initializing LRU.
Initializing LRU.
Initializing rdLRU.
Initializing LRU.
Initializing LRU.
Heartbeat CPU 0 instructions: 10000000 cycles: 3147735 heartbeat IPC: 3.17689 cumulative IPC: 3.17689 (Simulation time: 0 hr 0 min 44 sec) 
Heartbeat CPU 0 instructions: 20000000 cycles: 6289293 heartbeat IPC: 3.18313 cumulative IPC: 3.18001 (Simulation time: 0 hr 1 min 29 sec) 
Heartbeat CPU 0 instructions: 30000002 cycles: 9402572 heartbeat IPC: 3.21205 cumulative IPC: 3.19062 (Simulation time: 0 hr 2 min 12 sec) 
Heartbeat CPU 0 instructions: 40000003 cycles: 12537751 heartbeat IPC: 3.18961 cumulative IPC: 3.19037 (Simulation time: 0 hr 2 min 57 sec) 
Heartbeat CPU 0 instructions: 50000003 cycles: 15679670 heartbeat IPC: 3.18277 cumulative IPC: 3.18884 (Simulation time: 0 hr 3 min 41 sec) 
Heartbeat CPU 0 instructions: 60000003 cycles: 18788322 heartbeat IPC: 3.21683 cumulative IPC: 3.19347 (Simulation time: 0 hr 4 min 26 sec) 
Heartbeat CPU 0 instructions: 70000001 cycles: 21946932 heartbeat IPC: 3.16595 cumulative IPC: 3.18951 (Simulation time: 0 hr 5 min 10 sec) 
Heartbeat CPU 0 instructions: 80000002 cycles: 25074753 heartbeat IPC: 3.19711 cumulative IPC: 3.19046 (Simulation time: 0 hr 5 min 55 sec) 
Heartbeat CPU 0 instructions: 90000002 cycles: 28250002 heartbeat IPC: 3.14936 cumulative IPC: 3.18584 (Simulation time: 0 hr 6 min 40 sec) 
Heartbeat CPU 0 instructions: 100000004 cycles: 31408623 heartbeat IPC: 3.16594 cumulative IPC: 3.18384 (Simulation time: 0 hr 7 min 24 sec) 
Heartbeat CPU 0 instructions: 110000001 cycles: 34538992 heartbeat IPC: 3.19451 cumulative IPC: 3.18481 (Simulation time: 0 hr 8 min 8 sec) 
Heartbeat CPU 0 instructions: 120000002 cycles: 37708628 heartbeat IPC: 3.15494 cumulative IPC: 3.1823 (Simulation time: 0 hr 8 min 53 sec) 
Heartbeat CPU 0 instructions: 130000001 cycles: 40960597 heartbeat IPC: 3.07506 cumulative IPC: 3.17378 (Simulation time: 0 hr 9 min 39 sec) 
Heartbeat CPU 0 instructions: 140000002 cycles: 44210372 heartbeat IPC: 3.07714 cumulative IPC: 3.16668 (Simulation time: 0 hr 10 min 25 sec) 
Heartbeat CPU 0 instructions: 150000001 cycles: 47394406 heartbeat IPC: 3.14067 cumulative IPC: 3.16493 (Simulation time: 0 hr 11 min 11 sec) 
Heartbeat CPU 0 instructions: 160000003 cycles: 50557900 heartbeat IPC: 3.16106 cumulative IPC: 3.16469 (Simulation time: 0 hr 11 min 55 sec) 
Heartbeat CPU 0 instructions: 170000001 cycles: 53730702 heartbeat IPC: 3.15179 cumulative IPC: 3.16393 (Simulation time: 0 hr 12 min 41 sec) 
Heartbeat CPU 0 instructions: 180000002 cycles: 56847240 heartbeat IPC: 3.20869 cumulative IPC: 3.16638 (Simulation time: 0 hr 13 min 24 sec) 
Heartbeat CPU 0 instructions: 190000002 cycles: 59989781 heartbeat IPC: 3.18214 cumulative IPC: 3.16721 (Simulation time: 0 hr 14 min 9 sec) 
Heartbeat CPU 0 instructions: 200000000 cycles: 63127106 heartbeat IPC: 3.18743 cumulative IPC: 3.16821 (Simulation time: 0 hr 14 min 54 sec) 
Heartbeat CPU 0 instructions: 210000001 cycles: 66306971 heartbeat IPC: 3.14479 cumulative IPC: 3.16709 (Simulation time: 0 hr 15 min 38 sec) 
Heartbeat CPU 0 instructions: 220000003 cycles: 69465789 heartbeat IPC: 3.16574 cumulative IPC: 3.16703 (Simulation time: 0 hr 16 min 23 sec) 
Heartbeat CPU 0 instructions: 230000003 cycles: 72615255 heartbeat IPC: 3.17514 cumulative IPC: 3.16738 (Simulation time: 0 hr 17 min 8 sec) 
Heartbeat CPU 0 instructions: 240000004 cycles: 75766687 heartbeat IPC: 3.17316 cumulative IPC: 3.16762 (Simulation time: 0 hr 17 min 52 sec) 
Heartbeat CPU 0 instructions: 250000004 cycles: 78922353 heartbeat IPC: 3.1689 cumulative IPC: 3.16767 (Simulation time: 0 hr 18 min 37 sec) 
Heartbeat CPU 0 instructions: 260000000 cycles: 82081991 heartbeat IPC: 3.16492 cumulative IPC: 3.16756 (Simulation time: 0 hr 19 min 21 sec) 
Heartbeat CPU 0 instructions: 270000001 cycles: 85233769 heartbeat IPC: 3.17281 cumulative IPC: 3.16776 (Simulation time: 0 hr 20 min 6 sec) 
Heartbeat CPU 0 instructions: 280000002 cycles: 88411235 heartbeat IPC: 3.14716 cumulative IPC: 3.16702 (Simulation time: 0 hr 20 min 51 sec) 
Heartbeat CPU 0 instructions: 290000004 cycles: 91556469 heartbeat IPC: 3.17941 cumulative IPC: 3.16744 (Simulation time: 0 hr 21 min 35 sec) 
Heartbeat CPU 0 instructions: 300000002 cycles: 94696485 heartbeat IPC: 3.1847 cumulative IPC: 3.16802 (Simulation time: 0 hr 22 min 20 sec) 
Heartbeat CPU 0 instructions: 310000001 cycles: 97799351 heartbeat IPC: 3.22283 cumulative IPC: 3.16976 (Simulation time: 0 hr 23 min 3 sec) 
Heartbeat CPU 0 instructions: 320000003 cycles: 100936864 heartbeat IPC: 3.18724 cumulative IPC: 3.1703 (Simulation time: 0 hr 23 min 48 sec) 
Heartbeat CPU 0 instructions: 330000003 cycles: 104094278 heartbeat IPC: 3.16715 cumulative IPC: 3.1702 (Simulation time: 0 hr 24 min 32 sec) 
Heartbeat CPU 0 instructions: 340000003 cycles: 107288986 heartbeat IPC: 3.13018 cumulative IPC: 3.16901 (Simulation time: 0 hr 25 min 18 sec) 
Heartbeat CPU 0 instructions: 350000003 cycles: 110531097 heartbeat IPC: 3.08441 cumulative IPC: 3.16653 (Simulation time: 0 hr 26 min 4 sec) 
Heartbeat CPU 0 instructions: 360000003 cycles: 113947573 heartbeat IPC: 2.92699 cumulative IPC: 3.15935 (Simulation time: 0 hr 26 min 52 sec) 
Heartbeat CPU 0 instructions: 370000003 cycles: 117354568 heartbeat IPC: 2.93514 cumulative IPC: 3.15284 (Simulation time: 0 hr 27 min 41 sec) 
Heartbeat CPU 0 instructions: 380000003 cycles: 120680091 heartbeat IPC: 3.00705 cumulative IPC: 3.14882 (Simulation time: 0 hr 28 min 28 sec) 
Heartbeat CPU 0 instructions: 390000002 cycles: 123912916 heartbeat IPC: 3.09327 cumulative IPC: 3.14737 (Simulation time: 0 hr 29 min 14 sec) 
Heartbeat CPU 0 instructions: 400000003 cycles: 127025875 heartbeat IPC: 3.21238 cumulative IPC: 3.14896 (Simulation time: 0 hr 29 min 59 sec) 
Heartbeat CPU 0 instructions: 410000003 cycles: 130143187 heartbeat IPC: 3.20789 cumulative IPC: 3.15038 (Simulation time: 0 hr 30 min 43 sec) 
Heartbeat CPU 0 instructions: 420000004 cycles: 133364897 heartbeat IPC: 3.10394 cumulative IPC: 3.14925 (Simulation time: 0 hr 31 min 29 sec) 
Heartbeat CPU 0 instructions: 430000004 cycles: 136624793 heartbeat IPC: 3.06758 cumulative IPC: 3.14731 (Simulation time: 0 hr 32 min 15 sec) 
Heartbeat CPU 0 instructions: 440000001 cycles: 139780462 heartbeat IPC: 3.1689 cumulative IPC: 3.14779 (Simulation time: 0 hr 32 min 59 sec) 
Heartbeat CPU 0 instructions: 450000002 cycles: 142929409 heartbeat IPC: 3.17567 cumulative IPC: 3.14841 (Simulation time: 0 hr 33 min 44 sec) 
Heartbeat CPU 0 instructions: 460000003 cycles: 146046557 heartbeat IPC: 3.20806 cumulative IPC: 3.14968 (Simulation time: 0 hr 34 min 28 sec) 
Heartbeat CPU 0 instructions: 470000000 cycles: 149187369 heartbeat IPC: 3.18389 cumulative IPC: 3.1504 (Simulation time: 0 hr 35 min 13 sec) 
Heartbeat CPU 0 instructions: 480000000 cycles: 152311605 heartbeat IPC: 3.20078 cumulative IPC: 3.15143 (Simulation time: 0 hr 35 min 57 sec) 
Heartbeat CPU 0 instructions: 490000004 cycles: 155431690 heartbeat IPC: 3.20504 cumulative IPC: 3.15251 (Simulation time: 0 hr 36 min 41 sec) 
Heartbeat CPU 0 instructions: 500000000 cycles: 158558548 heartbeat IPC: 3.1981 cumulative IPC: 3.15341 (Simulation time: 0 hr 37 min 25 sec) 

Warmup complete CPU 0 instructions: 500000005 cycles: 158558549 (Simulation time: 0 hr 37 min 25 sec) 

Heartbeat CPU 0 instructions: 510000001 cycles: 282362538 heartbeat IPC: 0.0807728 cumulative IPC: 0.0807728 (Simulation time: 0 hr 41 min 2 sec) 
Heartbeat CPU 0 instructions: 520000004 cycles: 417442721 heartbeat IPC: 0.0740301 cumulative IPC: 0.0772546 (Simulation time: 0 hr 44 min 48 sec) 
Heartbeat CPU 0 instructions: 530000000 cycles: 545977282 heartbeat IPC: 0.0778001 cumulative IPC: 0.0774356 (Simulation time: 0 hr 48 min 28 sec) 
Heartbeat CPU 0 instructions: 540000004 cycles: 676349798 heartbeat IPC: 0.0767033 cumulative IPC: 0.0772512 (Simulation time: 0 hr 52 min 11 sec) 
Heartbeat CPU 0 instructions: 550000001 cycles: 788282958 heartbeat IPC: 0.089339 cumulative IPC: 0.0793998 (Simulation time: 0 hr 55 min 13 sec) 
Heartbeat CPU 0 instructions: 560000000 cycles: 911462441 heartbeat IPC: 0.0811823 cumulative IPC: 0.0796914 (Simulation time: 0 hr 58 min 25 sec) 
Heartbeat CPU 0 instructions: 570000004 cycles: 1031321527 heartbeat IPC: 0.0834313 cumulative IPC: 0.0802051 (Simulation time: 1 hr 1 min 35 sec) 
Heartbeat CPU 0 instructions: 580000002 cycles: 1147634878 heartbeat IPC: 0.0859746 cumulative IPC: 0.0808835 (Simulation time: 1 hr 4 min 41 sec) 
Heartbeat CPU 0 instructions: 590000004 cycles: 1272747324 heartbeat IPC: 0.0799281 cumulative IPC: 0.0807763 (Simulation time: 1 hr 7 min 57 sec) 
Heartbeat CPU 0 instructions: 600000002 cycles: 1396118183 heartbeat IPC: 0.0810564 cumulative IPC: 0.0808042 (Simulation time: 1 hr 11 min 13 sec) 
Heartbeat CPU 0 instructions: 610000000 cycles: 1526916180 heartbeat IPC: 0.0764538 cumulative IPC: 0.0803883 (Simulation time: 1 hr 14 min 41 sec) 
Heartbeat CPU 0 instructions: 620000002 cycles: 1650491546 heartbeat IPC: 0.0809223 cumulative IPC: 0.0804326 (Simulation time: 1 hr 18 min 3 sec) 
Heartbeat CPU 0 instructions: 630000001 cycles: 1777664452 heartbeat IPC: 0.0786331 cumulative IPC: 0.0802912 (Simulation time: 1 hr 21 min 34 sec) 
Heartbeat CPU 0 instructions: 640000000 cycles: 1908768926 heartbeat IPC: 0.076275 cumulative IPC: 0.0799904 (Simulation time: 1 hr 25 min 3 sec) 
Heartbeat CPU 0 instructions: 650000003 cycles: 2033024815 heartbeat IPC: 0.0804791 cumulative IPC: 0.0800228 (Simulation time: 1 hr 28 min 22 sec) 
Heartbeat CPU 0 instructions: 660000000 cycles: 2163733216 heartbeat IPC: 0.0765062 cumulative IPC: 0.0797935 (Simulation time: 1 hr 32 min 0 sec) 
Heartbeat CPU 0 instructions: 670000000 cycles: 2289982316 heartbeat IPC: 0.0792085 cumulative IPC: 0.0797589 (Simulation time: 1 hr 35 min 32 sec) 
Heartbeat CPU 0 instructions: 680000002 cycles: 2420022787 heartbeat IPC: 0.0768992 cumulative IPC: 0.0795944 (Simulation time: 1 hr 39 min 14 sec) 
Heartbeat CPU 0 instructions: 690000001 cycles: 2547300027 heartbeat IPC: 0.0785686 cumulative IPC: 0.0795398 (Simulation time: 1 hr 42 min 46 sec) 
Heartbeat CPU 0 instructions: 700000000 cycles: 2677472154 heartbeat IPC: 0.0768214 cumulative IPC: 0.0793993 (Simulation time: 1 hr 46 min 21 sec) 
Heartbeat CPU 0 instructions: 710000000 cycles: 2813639499 heartbeat IPC: 0.073439 cumulative IPC: 0.0790936 (Simulation time: 1 hr 50 min 4 sec) 
Heartbeat CPU 0 instructions: 720000003 cycles: 2939876193 heartbeat IPC: 0.0792163 cumulative IPC: 0.0790992 (Simulation time: 1 hr 53 min 36 sec) 
Heartbeat CPU 0 instructions: 730000002 cycles: 3068912183 heartbeat IPC: 0.0774978 cumulative IPC: 0.0790282 (Simulation time: 1 hr 57 min 12 sec) 
Heartbeat CPU 0 instructions: 740000000 cycles: 3199141399 heartbeat IPC: 0.0767877 cumulative IPC: 0.0789322 (Simulation time: 2 hr 0 min 50 sec) 
Heartbeat CPU 0 instructions: 750000000 cycles: 3336348298 heartbeat IPC: 0.0728826 cumulative IPC: 0.078671 (Simulation time: 2 hr 4 min 35 sec) 
Heartbeat CPU 0 instructions: 760000000 cycles: 3465658815 heartbeat IPC: 0.0773332 cumulative IPC: 0.0786187 (Simulation time: 2 hr 8 min 13 sec) 
Heartbeat CPU 0 instructions: 770000001 cycles: 3596728565 heartbeat IPC: 0.0762953 cumulative IPC: 0.0785301 (Simulation time: 2 hr 11 min 55 sec) 
Heartbeat CPU 0 instructions: 780000000 cycles: 3736886784 heartbeat IPC: 0.0713479 cumulative IPC: 0.0782488 (Simulation time: 2 hr 15 min 41 sec) 
Heartbeat CPU 0 instructions: 790000001 cycles: 3862156599 heartbeat IPC: 0.0798277 cumulative IPC: 0.0783022 (Simulation time: 2 hr 19 min 10 sec) 
Heartbeat CPU 0 instructions: 800000002 cycles: 3990652489 heartbeat IPC: 0.0778235 cumulative IPC: 0.0782862 (Simulation time: 2 hr 22 min 39 sec) 
Heartbeat CPU 0 instructions: 810000001 cycles: 4119566741 heartbeat IPC: 0.0775709 cumulative IPC: 0.0782629 (Simulation time: 2 hr 26 min 9 sec) 
Heartbeat CPU 0 instructions: 820000004 cycles: 4237767838 heartbeat IPC: 0.0846016 cumulative IPC: 0.0784466 (Simulation time: 2 hr 29 min 27 sec) 
Heartbeat CPU 0 instructions: 830000000 cycles: 4358093467 heartbeat IPC: 0.0831078 cumulative IPC: 0.0785801 (Simulation time: 2 hr 32 min 45 sec) 
Heartbeat CPU 0 instructions: 840000001 cycles: 4494292015 heartbeat IPC: 0.0734222 cumulative IPC: 0.0784181 (Simulation time: 2 hr 36 min 25 sec) 
Heartbeat CPU 0 instructions: 850000000 cycles: 4622949996 heartbeat IPC: 0.0777254 cumulative IPC: 0.0783981 (Simulation time: 2 hr 40 min 4 sec) 
Heartbeat CPU 0 instructions: 860000000 cycles: 4765006769 heartbeat IPC: 0.0703944 cumulative IPC: 0.0781513 (Simulation time: 2 hr 43 min 53 sec) 
Heartbeat CPU 0 instructions: 870000003 cycles: 4897059947 heartbeat IPC: 0.0757271 cumulative IPC: 0.0780838 (Simulation time: 2 hr 47 min 27 sec) 
Heartbeat CPU 0 instructions: 880000000 cycles: 5017727856 heartbeat IPC: 0.082872 cumulative IPC: 0.0782027 (Simulation time: 2 hr 50 min 54 sec) 
Heartbeat CPU 0 instructions: 890000000 cycles: 5152014066 heartbeat IPC: 0.0744678 cumulative IPC: 0.0781022 (Simulation time: 2 hr 54 min 33 sec) 
Heartbeat CPU 0 instructions: 900000000 cycles: 5279099950 heartbeat IPC: 0.0786869 cumulative IPC: 0.0781167 (Simulation time: 2 hr 58 min 7 sec) 
Heartbeat CPU 0 instructions: 910000000 cycles: 5415202767 heartbeat IPC: 0.0734739 cumulative IPC: 0.0779965 (Simulation time: 3 hr 1 min 49 sec) 
Heartbeat CPU 0 instructions: 920000001 cycles: 5549225725 heartbeat IPC: 0.0746141 cumulative IPC: 0.0779124 (Simulation time: 3 hr 5 min 33 sec) 
Heartbeat CPU 0 instructions: 930000000 cycles: 5674261546 heartbeat IPC: 0.0799771 cumulative IPC: 0.0779592 (Simulation time: 3 hr 9 min 3 sec) 
Heartbeat CPU 0 instructions: 940000002 cycles: 5809057630 heartbeat IPC: 0.0741861 cumulative IPC: 0.0778692 (Simulation time: 3 hr 12 min 48 sec) 
Heartbeat CPU 0 instructions: 950000004 cycles: 5943677468 heartbeat IPC: 0.0742833 cumulative IPC: 0.0777858 (Simulation time: 3 hr 16 min 36 sec) 
Heartbeat CPU 0 instructions: 960000000 cycles: 6064981822 heartbeat IPC: 0.0824372 cumulative IPC: 0.0778813 (Simulation time: 3 hr 20 min 16 sec) 
Heartbeat CPU 0 instructions: 970000004 cycles: 6201561013 heartbeat IPC: 0.0732176 cumulative IPC: 0.0777759 (Simulation time: 3 hr 24 min 7 sec) 
Heartbeat CPU 0 instructions: 980000001 cycles: 6339492617 heartbeat IPC: 0.0724997 cumulative IPC: 0.0776582 (Simulation time: 3 hr 28 min 0 sec) 
Heartbeat CPU 0 instructions: 990000001 cycles: 6465165769 heartbeat IPC: 0.0795715 cumulative IPC: 0.0776963 (Simulation time: 3 hr 32 min 51 sec) 
Heartbeat CPU 0 instructions: 1000000000 cycles: 6592753671 heartbeat IPC: 0.0783773 cumulative IPC: 0.0777098 (Simulation time: 3 hr 39 min 40 sec) 
Heartbeat CPU 0 instructions: 1010000000 cycles: 6690610767 heartbeat IPC: 0.10219 cumulative IPC: 0.0780765 (Simulation time: 3 hr 42 min 42 sec) 
Heartbeat CPU 0 instructions: 1020000000 cycles: 6806860918 heartbeat IPC: 0.0860214 cumulative IPC: 0.0782155 (Simulation time: 3 hr 46 min 49 sec) 
Heartbeat CPU 0 instructions: 1030000003 cycles: 6954515848 heartbeat IPC: 0.0677255 cumulative IPC: 0.0779875 (Simulation time: 3 hr 51 min 18 sec) 
Heartbeat CPU 0 instructions: 1040000000 cycles: 7080218393 heartbeat IPC: 0.0795529 cumulative IPC: 0.078016 (Simulation time: 3 hr 55 min 35 sec) 
Heartbeat CPU 0 instructions: 1050000001 cycles: 7210042079 heartbeat IPC: 0.0770276 cumulative IPC: 0.0779978 (Simulation time: 3 hr 59 min 58 sec) 
Heartbeat CPU 0 instructions: 1060000000 cycles: 7352632829 heartbeat IPC: 0.0701308 cumulative IPC: 0.0778418 (Simulation time: 4 hr 5 min 10 sec) 
Heartbeat CPU 0 instructions: 1070000001 cycles: 7474823389 heartbeat IPC: 0.0818394 cumulative IPC: 0.0779086 (Simulation time: 4 hr 9 min 33 sec) 
Heartbeat CPU 0 instructions: 1080000001 cycles: 7593856823 heartbeat IPC: 0.08401 cumulative IPC: 0.0780063 (Simulation time: 4 hr 13 min 6 sec) 
Heartbeat CPU 0 instructions: 1090000000 cycles: 7722935593 heartbeat IPC: 0.0774721 cumulative IPC: 0.0779972 (Simulation time: 4 hr 17 min 22 sec) 
Heartbeat CPU 0 instructions: 1100000000 cycles: 7841723044 heartbeat IPC: 0.084184 cumulative IPC: 0.0780928 (Simulation time: 4 hr 21 min 12 sec) 
Heartbeat CPU 0 instructions: 1110000001 cycles: 7973385308 heartbeat IPC: 0.0759519 cumulative IPC: 0.0780568 (Simulation time: 4 hr 25 min 15 sec) 
Heartbeat CPU 0 instructions: 1120000001 cycles: 8106043407 heartbeat IPC: 0.0753818 cumulative IPC: 0.0780121 (Simulation time: 4 hr 30 min 35 sec) 
Heartbeat CPU 0 instructions: 1130000003 cycles: 8243561221 heartbeat IPC: 0.0727179 cumulative IPC: 0.0779221 (Simulation time: 4 hr 34 min 35 sec) 
Heartbeat CPU 0 instructions: 1140000000 cycles: 8366847297 heartbeat IPC: 0.0811121 cumulative IPC: 0.07797 (Simulation time: 4 hr 38 min 32 sec) 
Heartbeat CPU 0 instructions: 1150000001 cycles: 8497927287 heartbeat IPC: 0.0762893 cumulative IPC: 0.0779435 (Simulation time: 4 hr 43 min 26 sec) 
Heartbeat CPU 0 instructions: 1160000002 cycles: 8626697896 heartbeat IPC: 0.0776575 cumulative IPC: 0.0779392 (Simulation time: 4 hr 47 min 49 sec) 
Heartbeat CPU 0 instructions: 1170000004 cycles: 8761271477 heartbeat IPC: 0.0743088 cumulative IPC: 0.0778824 (Simulation time: 4 hr 51 min 55 sec) 
Heartbeat CPU 0 instructions: 1180000000 cycles: 8887036805 heartbeat IPC: 0.0795131 cumulative IPC: 0.0779059 (Simulation time: 4 hr 55 min 58 sec) 
Heartbeat CPU 0 instructions: 1190000003 cycles: 9022296225 heartbeat IPC: 0.073932 cumulative IPC: 0.0778453 (Simulation time: 5 hr 1 min 37 sec) 
Heartbeat CPU 0 instructions: 1200000000 cycles: 9154926301 heartbeat IPC: 0.0753977 cumulative IPC: 0.0778092 (Simulation time: 5 hr 6 min 7 sec) 
Heartbeat CPU 0 instructions: 1210000000 cycles: 9276518161 heartbeat IPC: 0.0822423 cumulative IPC: 0.0778683 (Simulation time: 5 hr 10 min 23 sec) 
Heartbeat CPU 0 instructions: 1220000000 cycles: 9415951165 heartbeat IPC: 0.071719 cumulative IPC: 0.0777757 (Simulation time: 5 hr 14 min 29 sec) 
Heartbeat CPU 0 instructions: 1230000001 cycles: 9550171636 heartbeat IPC: 0.0745043 cumulative IPC: 0.0777289 (Simulation time: 5 hr 18 min 29 sec) 
Heartbeat CPU 0 instructions: 1240000000 cycles: 9679169150 heartbeat IPC: 0.0775209 cumulative IPC: 0.0777261 (Simulation time: 5 hr 22 min 19 sec) 
Heartbeat CPU 0 instructions: 1250000000 cycles: 9802819580 heartbeat IPC: 0.0808732 cumulative IPC: 0.0777665 (Simulation time: 5 hr 27 min 49 sec) 
Heartbeat CPU 0 instructions: 1260000000 cycles: 9942907286 heartbeat IPC: 0.0713838 cumulative IPC: 0.0776751 (Simulation time: 5 hr 32 min 1 sec) 
Heartbeat CPU 0 instructions: 1270000001 cycles: 10069428920 heartbeat IPC: 0.0790379 cumulative IPC: 0.0776925 (Simulation time: 5 hr 36 min 1 sec) 
Heartbeat CPU 0 instructions: 1280000000 cycles: 10202873311 heartbeat IPC: 0.0749376 cumulative IPC: 0.0776559 (Simulation time: 5 hr 40 min 25 sec) 
Heartbeat CPU 0 instructions: 1290000000 cycles: 10326720016 heartbeat IPC: 0.080745 cumulative IPC: 0.0776935 (Simulation time: 5 hr 44 min 12 sec) 
Heartbeat CPU 0 instructions: 1300000000 cycles: 10470154083 heartbeat IPC: 0.0697184 cumulative IPC: 0.0775826 (Simulation time: 5 hr 48 min 41 sec) 
Heartbeat CPU 0 instructions: 1310000000 cycles: 10594412944 heartbeat IPC: 0.0804772 cumulative IPC: 0.077617 (Simulation time: 5 hr 52 min 36 sec) 
Heartbeat CPU 0 instructions: 1320000002 cycles: 10721653690 heartbeat IPC: 0.0785912 cumulative IPC: 0.0776288 (Simulation time: 5 hr 56 min 21 sec) 
Heartbeat CPU 0 instructions: 1330000003 cycles: 10863339260 heartbeat IPC: 0.0705788 cumulative IPC: 0.0775355 (Simulation time: 6 hr 0 min 45 sec) 
Heartbeat CPU 0 instructions: 1340000003 cycles: 10991066219 heartbeat IPC: 0.078292 cumulative IPC: 0.0775444 (Simulation time: 6 hr 4 min 45 sec) 
Heartbeat CPU 0 instructions: 1350000002 cycles: 11133872535 heartbeat IPC: 0.0700249 cumulative IPC: 0.0774465 (Simulation time: 6 hr 8 min 44 sec) 
Heartbeat CPU 0 instructions: 1360000000 cycles: 11257034033 heartbeat IPC: 0.0811942 cumulative IPC: 0.0774881 (Simulation time: 6 hr 12 min 24 sec) 
Heartbeat CPU 0 instructions: 1370000000 cycles: 11398518137 heartbeat IPC: 0.0706793 cumulative IPC: 0.0774024 (Simulation time: 6 hr 16 min 26 sec) 
Heartbeat CPU 0 instructions: 1380000003 cycles: 11527902343 heartbeat IPC: 0.0772892 cumulative IPC: 0.0774011 (Simulation time: 6 hr 20 min 11 sec) 
Heartbeat CPU 0 instructions: 1390000000 cycles: 11657098747 heartbeat IPC: 0.0774015 cumulative IPC: 0.0774011 (Simulation time: 6 hr 23 min 55 sec) 
Heartbeat CPU 0 instructions: 1400000000 cycles: 11784225050 heartbeat IPC: 0.0786619 cumulative IPC: 0.0774149 (Simulation time: 6 hr 27 min 43 sec) 
Heartbeat CPU 0 instructions: 1410000000 cycles: 11918840092 heartbeat IPC: 0.0742859 cumulative IPC: 0.0773791 (Simulation time: 6 hr 31 min 42 sec) 
Heartbeat CPU 0 instructions: 1420000001 cycles: 12046192843 heartbeat IPC: 0.0785221 cumulative IPC: 0.0773913 (Simulation time: 6 hr 35 min 32 sec) 
Heartbeat CPU 0 instructions: 1430000001 cycles: 12176053210 heartbeat IPC: 0.0770058 cumulative IPC: 0.0773872 (Simulation time: 6 hr 39 min 25 sec) 
Heartbeat CPU 0 instructions: 1440000002 cycles: 12302572519 heartbeat IPC: 0.0790393 cumulative IPC: 0.0774044 (Simulation time: 6 hr 43 min 10 sec) 
Heartbeat CPU 0 instructions: 1450000001 cycles: 12440244099 heartbeat IPC: 0.0726366 cumulative IPC: 0.0773509 (Simulation time: 6 hr 47 min 6 sec) 
Heartbeat CPU 0 instructions: 1460000000 cycles: 12566230238 heartbeat IPC: 0.0793738 cumulative IPC: 0.0773715 (Simulation time: 6 hr 50 min 49 sec) 
Heartbeat CPU 0 instructions: 1470000000 cycles: 12699320474 heartbeat IPC: 0.075137 cumulative IPC: 0.0773478 (Simulation time: 6 hr 54 min 38 sec) 
Heartbeat CPU 0 instructions: 1480000000 cycles: 12825940971 heartbeat IPC: 0.0789762 cumulative IPC: 0.077364 (Simulation time: 6 hr 58 min 28 sec) 
Heartbeat CPU 0 instructions: 1490000002 cycles: 12953561125 heartbeat IPC: 0.0783575 cumulative IPC: 0.077374 (Simulation time: 7 hr 2 min 16 sec) 
Heartbeat CPU 0 instructions: 1500000001 cycles: 13099262978 heartbeat IPC: 0.0686333 cumulative IPC: 0.0772755 (Simulation time: 7 hr 6 min 6 sec) 
Heartbeat CPU 0 instructions: 1510000000 cycles: 13230478515 heartbeat IPC: 0.0762105 cumulative IPC: 0.0772649 (Simulation time: 7 hr 9 min 46 sec) 
Heartbeat CPU 0 instructions: 1520000003 cycles: 13367289642 heartbeat IPC: 0.0730935 cumulative IPC: 0.0772216 (Simulation time: 7 hr 13 min 33 sec) 
Heartbeat CPU 0 instructions: 1530000001 cycles: 13493790636 heartbeat IPC: 0.0790507 cumulative IPC: 0.077239 (Simulation time: 7 hr 17 min 7 sec) 
Heartbeat CPU 0 instructions: 1540000001 cycles: 13630540484 heartbeat IPC: 0.0731262 cumulative IPC: 0.0771973 (Simulation time: 7 hr 20 min 52 sec) 
Heartbeat CPU 0 instructions: 1550000000 cycles: 13766419784 heartbeat IPC: 0.0735947 cumulative IPC: 0.0771613 (Simulation time: 7 hr 24 min 34 sec) 
Heartbeat CPU 0 instructions: 1560000002 cycles: 13899409641 heartbeat IPC: 0.0751937 cumulative IPC: 0.0771422 (Simulation time: 7 hr 28 min 11 sec) 
Heartbeat CPU 0 instructions: 1570000000 cycles: 14027851597 heartbeat IPC: 0.0778562 cumulative IPC: 0.0771488 (Simulation time: 7 hr 31 min 40 sec) 
Heartbeat CPU 0 instructions: 1580000001 cycles: 14158972251 heartbeat IPC: 0.0762656 cumulative IPC: 0.0771406 (Simulation time: 7 hr 35 min 18 sec) 
Heartbeat CPU 0 instructions: 1590000000 cycles: 14290980007 heartbeat IPC: 0.0757531 cumulative IPC: 0.0771276 (Simulation time: 7 hr 38 min 56 sec) 
Heartbeat CPU 0 instructions: 1600000001 cycles: 14419806748 heartbeat IPC: 0.0776236 cumulative IPC: 0.0771321 (Simulation time: 7 hr 42 min 31 sec) 
Heartbeat CPU 0 instructions: 1610000000 cycles: 14555747130 heartbeat IPC: 0.0735617 cumulative IPC: 0.0770984 (Simulation time: 7 hr 46 min 16 sec) 
Heartbeat CPU 0 instructions: 1620000003 cycles: 14682944916 heartbeat IPC: 0.0786177 cumulative IPC: 0.0771117 (Simulation time: 7 hr 49 min 53 sec) 
Heartbeat CPU 0 instructions: 1630000000 cycles: 14806389960 heartbeat IPC: 0.0810077 cumulative IPC: 0.0771445 (Simulation time: 7 hr 53 min 23 sec) 
Heartbeat CPU 0 instructions: 1640000002 cycles: 14938278199 heartbeat IPC: 0.0758218 cumulative IPC: 0.0771327 (Simulation time: 7 hr 57 min 6 sec) 
Heartbeat CPU 0 instructions: 1650000000 cycles: 15068784685 heartbeat IPC: 0.0766245 cumulative IPC: 0.0771283 (Simulation time: 8 hr 0 min 44 sec) 
Heartbeat CPU 0 instructions: 1660000002 cycles: 15198353679 heartbeat IPC: 0.077179 cumulative IPC: 0.0771287 (Simulation time: 8 hr 4 min 20 sec) 
Heartbeat CPU 0 instructions: 1670000000 cycles: 15327904208 heartbeat IPC: 0.0771899 cumulative IPC: 0.0771292 (Simulation time: 8 hr 7 min 55 sec) 
Heartbeat CPU 0 instructions: 1680000000 cycles: 15454138243 heartbeat IPC: 0.0792179 cumulative IPC: 0.0771465 (Simulation time: 8 hr 11 min 22 sec) 
Heartbeat CPU 0 instructions: 1690000000 cycles: 15584505433 heartbeat IPC: 0.0767064 cumulative IPC: 0.0771428 (Simulation time: 8 hr 14 min 59 sec) 
Heartbeat CPU 0 instructions: 1700000000 cycles: 15715399416 heartbeat IPC: 0.0763977 cumulative IPC: 0.0771365 (Simulation time: 8 hr 18 min 35 sec) 
Heartbeat CPU 0 instructions: 1710000000 cycles: 15850147153 heartbeat IPC: 0.0742128 cumulative IPC: 0.0771114 (Simulation time: 8 hr 22 min 18 sec) 
Heartbeat CPU 0 instructions: 1720000003 cycles: 15978640279 heartbeat IPC: 0.0778252 cumulative IPC: 0.0771172 (Simulation time: 8 hr 25 min 50 sec) 
Heartbeat CPU 0 instructions: 1730000000 cycles: 16115442414 heartbeat IPC: 0.0730982 cumulative IPC: 0.0770827 (Simulation time: 8 hr 29 min 38 sec) 
Heartbeat CPU 0 instructions: 1740000000 cycles: 16239612183 heartbeat IPC: 0.0805349 cumulative IPC: 0.0771094 (Simulation time: 8 hr 33 min 12 sec) 
Heartbeat CPU 0 instructions: 1750000000 cycles: 16377908005 heartbeat IPC: 0.0723088 cumulative IPC: 0.0770684 (Simulation time: 8 hr 37 min 5 sec) 
Heartbeat CPU 0 instructions: 1760000000 cycles: 16509522632 heartbeat IPC: 0.0759794 cumulative IPC: 0.0770597 (Simulation time: 8 hr 40 min 53 sec) 
Heartbeat CPU 0 instructions: 1770000000 cycles: 16642723637 heartbeat IPC: 0.0750745 cumulative IPC: 0.0770436 (Simulation time: 8 hr 44 min 42 sec) 
Heartbeat CPU 0 instructions: 1780000000 cycles: 16766768239 heartbeat IPC: 0.0806162 cumulative IPC: 0.0770703 (Simulation time: 8 hr 48 min 23 sec) 
Heartbeat CPU 0 instructions: 1790000000 cycles: 16900656400 heartbeat IPC: 0.0746892 cumulative IPC: 0.0770513 (Simulation time: 8 hr 52 min 13 sec) 
Heartbeat CPU 0 instructions: 1800000002 cycles: 17029489302 heartbeat IPC: 0.0776199 cumulative IPC: 0.0770556 (Simulation time: 8 hr 55 min 55 sec) 
Heartbeat CPU 0 instructions: 1810000000 cycles: 17142304261 heartbeat IPC: 0.0886407 cumulative IPC: 0.0771326 (Simulation time: 8 hr 59 min 17 sec) 
Heartbeat CPU 0 instructions: 1820000000 cycles: 17277353040 heartbeat IPC: 0.0740473 cumulative IPC: 0.0771082 (Simulation time: 9 hr 3 min 6 sec) 
Heartbeat CPU 0 instructions: 1830000001 cycles: 17403505754 heartbeat IPC: 0.079269 cumulative IPC: 0.077124 (Simulation time: 9 hr 6 min 48 sec) 
Heartbeat CPU 0 instructions: 1840000001 cycles: 17537334019 heartbeat IPC: 0.0747226 cumulative IPC: 0.0771055 (Simulation time: 9 hr 10 min 39 sec) 
Heartbeat CPU 0 instructions: 1850000000 cycles: 17666124428 heartbeat IPC: 0.0776455 cumulative IPC: 0.0771095 (Simulation time: 9 hr 14 min 24 sec) 
Heartbeat CPU 0 instructions: 1860000000 cycles: 17794481022 heartbeat IPC: 0.077908 cumulative IPC: 0.0771153 (Simulation time: 9 hr 18 min 11 sec) 
Heartbeat CPU 0 instructions: 1870000000 cycles: 17912768686 heartbeat IPC: 0.0845397 cumulative IPC: 0.0771648 (Simulation time: 9 hr 21 min 33 sec) 
Heartbeat CPU 0 instructions: 1880000001 cycles: 18042812548 heartbeat IPC: 0.0768971 cumulative IPC: 0.0771628 (Simulation time: 9 hr 25 min 20 sec) 
Heartbeat CPU 0 instructions: 1890000000 cycles: 18176333060 heartbeat IPC: 0.0748949 cumulative IPC: 0.077146 (Simulation time: 9 hr 29 min 11 sec) 
Heartbeat CPU 0 instructions: 1900000000 cycles: 18302757912 heartbeat IPC: 0.0790984 cumulative IPC: 0.0771596 (Simulation time: 9 hr 32 min 54 sec) 
Heartbeat CPU 0 instructions: 1910000000 cycles: 18429560770 heartbeat IPC: 0.0788626 cumulative IPC: 0.0771715 (Simulation time: 9 hr 36 min 36 sec) 
Heartbeat CPU 0 instructions: 1920000003 cycles: 18563289186 heartbeat IPC: 0.0747784 cumulative IPC: 0.0771541 (Simulation time: 9 hr 40 min 26 sec) 
Heartbeat CPU 0 instructions: 1930000000 cycles: 18689451354 heartbeat IPC: 0.079263 cumulative IPC: 0.0771684 (Simulation time: 9 hr 44 min 9 sec) 
Heartbeat CPU 0 instructions: 1940000000 cycles: 18816785469 heartbeat IPC: 0.0785336 cumulative IPC: 0.0771777 (Simulation time: 9 hr 47 min 57 sec) 
Heartbeat CPU 0 instructions: 1950000000 cycles: 18944851594 heartbeat IPC: 0.0780847 cumulative IPC: 0.0771839 (Simulation time: 9 hr 51 min 41 sec) 
Heartbeat CPU 0 instructions: 1960000000 cycles: 19081936152 heartbeat IPC: 0.0729477 cumulative IPC: 0.0771532 (Simulation time: 9 hr 55 min 34 sec) 
Heartbeat CPU 0 instructions: 1970000002 cycles: 19215577373 heartbeat IPC: 0.0748272 cumulative IPC: 0.0771369 (Simulation time: 9 hr 59 min 22 sec) 
Heartbeat CPU 0 instructions: 1980000002 cycles: 19337896366 heartbeat IPC: 0.0817535 cumulative IPC: 0.0771664 (Simulation time: 10 hr 2 min 57 sec) 
Heartbeat CPU 0 instructions: 1990000001 cycles: 19473118723 heartbeat IPC: 0.0739523 cumulative IPC: 0.0771439 (Simulation time: 10 hr 6 min 42 sec) 
*** Reached end of trace: traces/429.mcf-184B.champsimtrace.xz
Heartbeat CPU 0 instructions: 2000000000 cycles: 19601867121 heartbeat IPC: 0.0776709 cumulative IPC: 0.0771474 (Simulation time: 10 hr 10 min 26 sec) 
Finished CPU 0 instructions: 1500000010 cycles: 19443308971 cumulative IPC: 0.0771474 (Simulation time: 10 hr 10 min 26 sec) 

ChampSim completed all CPUs

Region of Interest Statistics

CPU 0 cumulative IPC: 0.0771474 instructions: 1500000010 cycles: 19443308971
cpu0_DTLB TOTAL     ACCESS:  324364024  HIT:  140775649  MISS:  183588375
cpu0_DTLB LOAD      ACCESS:  305133911  HIT:  123777182  MISS:  181356729
cpu0_DTLB RFO       ACCESS:   19230113  HIT:   16998467  MISS:    2231646
cpu0_DTLB PREFETCH  ACCESS:          0  HIT:          0  MISS:          0
cpu0_DTLB WRITEBACK ACCESS:          0  HIT:          0  MISS:          0
cpu0_DTLB TRANSLATION ACCESS:          0  HIT:          0  MISS:          0
cpu0_DTLB PREFETCH  REQUESTED:          0  ISSUED:          0  USEFUL:          0  USELESS:          0
cpu0_DTLB AVERAGE MISS LATENCY: 9.89267 cycles
cpu0_ITLB TOTAL     ACCESS:  174196321  HIT:  174196321  MISS:          0
cpu0_ITLB LOAD      ACCESS:  174196321  HIT:  174196321  MISS:          0
cpu0_ITLB RFO       ACCESS:          0  HIT:          0  MISS:          0
cpu0_ITLB PREFETCH  ACCESS:          0  HIT:          0  MISS:          0
cpu0_ITLB WRITEBACK ACCESS:          0  HIT:          0  MISS:          0
cpu0_ITLB TRANSLATION ACCESS:          0  HIT:          0  MISS:          0
cpu0_ITLB PREFETCH  REQUESTED:          0  ISSUED:          0  USEFUL:          0  USELESS:          0
cpu0_ITLB AVERAGE MISS LATENCY: -nan cycles
cpu0_L1I TOTAL     ACCESS:          1  HIT:          1  MISS:          0
cpu0_L1I LOAD      ACCESS:          1  HIT:          1  MISS:          0
cpu0_L1I RFO       ACCESS:          0  HIT:          0  MISS:          0
cpu0_L1I PREFETCH  ACCESS:          0  HIT:          0  MISS:          0
cpu0_L1I WRITEBACK ACCESS:          0  HIT:          0  MISS:          0
cpu0_L1I TRANSLATION ACCESS:          0  HIT:          0  MISS:          0
cpu0_L1I PREFETCH  REQUESTED:          0  ISSUED:          0  USEFUL:          0  USELESS:          0
cpu0_L1I AVERAGE MISS LATENCY: -nan cycles
cpu0_STLB TOTAL     ACCESS:  183588375  HIT:  174268806  MISS:    9319569
cpu0_STLB LOAD      ACCESS:  181356729  HIT:  172095837  MISS:    9260892
cpu0_STLB RFO       ACCESS:    2231646  HIT:    2172969  MISS:      58677
cpu0_STLB PREFETCH  ACCESS:          0  HIT:          0  MISS:          0
cpu0_STLB WRITEBACK ACCESS:          0  HIT:          0  MISS:          0
cpu0_STLB TRANSLATION ACCESS:          0  HIT:          0  MISS:          0
cpu0_STLB PREFETCH  REQUESTED:          0  ISSUED:          0  USEFUL:          0  USELESS:          0
cpu0_STLB AVERAGE MISS LATENCY: 17.5478 cycles
cpu0_L1D TOTAL     ACCESS:  352811388  HIT:  152623819  MISS:  200187569
cpu0_L1D LOAD      ACCESS:  317029390  HIT:  119923735  MISS:  197105655
cpu0_L1D RFO       ACCESS:   26488716  HIT:   25185519  MISS:    1303197
cpu0_L1D PREFETCH  ACCESS:          0  HIT:          0  MISS:          0
cpu0_L1D WRITEBACK ACCESS:          0  HIT:          0  MISS:          0
cpu0_L1D TRANSLATION ACCESS:    9293282  HIT:    7514565  MISS:    1778717
cpu0_L1D PREFETCH  REQUESTED:          0  ISSUED:          0  USEFUL:          0  USELESS:          0
cpu0_L1D AVERAGE MISS LATENCY: 220.213 cycles
cpu0_L2C TOTAL     ACCESS:  214140685  HIT:   69497256  MISS:  144643429
cpu0_L2C LOAD      ACCESS:  197104426  HIT:   54253357  MISS:  142851069
cpu0_L2C RFO       ACCESS:    1303163  HIT:     440748  MISS:     862415
cpu0_L2C PREFETCH  ACCESS:          0  HIT:          0  MISS:          0
cpu0_L2C WRITEBACK ACCESS:   13954379  HIT:   13954072  MISS:        307
cpu0_L2C TRANSLATION ACCESS:    1778717  HIT:     849079  MISS:     929638
cpu0_L2C PREFETCH  REQUESTED:          0  ISSUED:          0  USEFUL:          0  USELESS:          0
cpu0_L2C AVERAGE MISS LATENCY: 289.521 cycles
LLC TOTAL     ACCESS:  155469652  HIT:   48684951  MISS:  106784701
LLC LOAD      ACCESS:  142851016  HIT:   36811887  MISS:  106039129
LLC RFO       ACCESS:     862415  HIT:     228698  MISS:     633717
LLC PREFETCH  ACCESS:          0  HIT:          0  MISS:          0
LLC WRITEBACK ACCESS:   10826583  HIT:   10759014  MISS:      67569
LLC TRANSLATION ACCESS:     929638  HIT:     885352  MISS:      44286
LLC PREFETCH  REQUESTED:          0  ISSUED:          0  USEFUL:          0  USELESS:          0
LLC AVERAGE MISS LATENCY: 363.721 cycles
~~~~~~~~~~Reuse Distance Profiler output~~~~~~~~~~
0	20802064	11353856
1	63516032	57969216
2	9766688	7827888
3	8933616	6215872
4	8792960	5356784
5	7923904	4644752
6	5451104	3511680
7	3622448	2210304
8	2733856	1747904
9	2582832	1791392
10	2287408	1641104
11	1744288	1209008
12	1315248	877568
13	1042176	718656
14	872480	612224
15	728160	515024
16	705920	509824
17	649056	490192
18	624096	478976
19	592912	426672
20	572432	392528
21	573952	388160
22	602768	442128
23	519504	395584
24	445520	357776
25	390736	320864
26	339408	279616
27	315152	269968
28	281344	245600
29	281424	246400
30	266768	238208
31	248592	217200
32	239632	197888
33	221376	185024
34	209968	176608
35	204304	172784
36	195280	161920
37	187232	158944
38	161712	137888
39	158320	136160
40	155872	137024
41	142960	123440
42	138704	117664
43	143952	124816
44	150368	126944
45	134528	115632
46	139600	119504
47	135376	115760
48	133072	115264
49	116688	98976
50	129472	106688
51	142512	117728
52	136880	116240
53	126848	107648
54	132848	111152
55	127648	107152
56	124336	104128
57	126816	104192
58	117120	96400
59	127824	107408
60	120320	99984
61	130704	109088
62	132688	108448
63	132064	107152
64	240240	176704
66	229488	176272
68	253632	198288
70	239824	180512
72	198560	135280
74	192288	124656
76	187760	112304
78	195760	111184
80	195488	105168
82	197712	101888
84	196704	97200
86	193120	95632
88	183456	87296
90	175648	94720
92	158112	88352
94	152288	94032
96	132704	84768
98	122640	83776
100	115920	82528
102	123648	96368
104	110768	86368
106	111760	91264
108	109600	91312
110	111824	92912
112	108688	89568
114	111920	96416
116	107088	93360
118	105568	93216
120	102640	90896
122	104624	93200
124	102352	91888
126	111632	103504
128	197232	182064
132	179088	167920
136	180224	170496
140	174640	166176
144	176688	167536
148	158528	150768
152	143072	136016
156	141920	135920
160	148144	143728
164	140512	135328
168	133712	129216
172	156144	151776
176	132416	127936
180	115552	111824
184	106784	103024
188	108432	104928
192	104272	100960
196	101216	97824
200	93904	90640
204	96720	93472
208	93328	90016
212	93504	90224
216	89472	86256
220	89200	86240
224	88064	85264
228	87696	84768
232	88784	85600
236	95520	92704
240	92944	90176
244	93056	90016
248	91776	88720
252	90752	87200
256	187168	180496
264	181792	176496
272	179696	174224
280	178496	173264
288	181520	176432
296	184272	178672
304	180144	175040
312	191856	187168
320	187088	182304
328	192192	186896
336	198528	194352
344	200400	195328
352	190464	185920
360	186064	181808
368	184592	180592
376	181616	178048
384	177984	174208
392	173040	169904
400	170528	167440
408	171568	168160
416	164880	161904
424	155552	152192
432	143808	141392
440	142752	139152
448	147504	137488
456	141456	124256
464	129360	119552
472	122800	118304
480	122240	118320
488	117152	113408
496	114464	110928
504	117296	112928
512	227728	212224
528	223984	214480
544	216304	210448
560	211456	206720
576	219840	213568
592	207712	201472
608	222224	215168
624	210944	204560
640	215872	208352
656	212144	204304
672	209024	200656
688	209776	200736
704	207520	197696
720	207296	196704
736	206144	195072
752	200608	189168
768	196240	184048
784	188928	176912
800	189584	176432
816	184832	172608
832	181056	168608
848	180480	168848
864	169360	157584
880	164736	153808
896	159040	148208
912	1020560	1009568
928	1552192	1538144
944	232480	211824
960	151088	138096
976	152496	141024
992	149808	139344
1008	148464	139328
1024	296736	278768
1056	280544	261840
1088	274352	257088
1120	257232	239648
1152	367248	351280
1184	11948048	11911872
1216	310224	290528
1248	294736	279136
1280	296576	282304
1312	302144	288944
1344	311488	298928
1376	303952	291760
1408	293872	281984
1440	277232	260416
1472	251408	239376
1504	249744	239824
1536	247504	237312
1568	245408	236672
1600	232816	224608
1632	204624	193840
1664	197920	180848
1696	171680	163344
1728	164336	157312
1760	159344	152720
1792	154032	147520
1824	458960	452304
1856	878624	867792
1888	166144	158112
1920	156944	149840
1952	156928	150080
1984	153024	147456
2016	157328	151568
2048	332416	319680
2112	315712	299920
2176	344304	330224
2240	386608	374864
2304	394928	382960
2368	6372400	6346080
2432	463360	450256
2496	526672	516320
2560	602000	592096
2624	689008	679776
2688	733456	725776
2752	1118976	1110432
2816	717520	705168
2880	649552	643008
2944	616336	609760
3008	569408	561856
3072	536160	526864
3136	558880	550800
3200	554560	547488
3264	494272	486112
3328	447472	440560
3392	414576	407792
3456	393440	387104
3520	489088	481632
3584	2988832	2975760
3648	531792	525488
3712	747760	739888
3776	512864	507120
3840	539760	533856
3904	536464	530368
3968	507024	500928
4032	488448	478912
4096	921968	908480
4224	810432	794912
4352	726960	717072
4480	606208	597584
4608	646496	637792
4736	3000544	2987440
4864	544560	535600
4992	686848	679792
5120	701152	693744
5248	644224	636640
5376	580064	573792
5504	661088	655200
5632	496208	490960
5760	513600	507824
5888	1558976	1549696
6016	508816	502176
6144	585664	580624
6272	605312	600848
6400	587744	581632
6528	515056	510048
6656	456256	451584
6784	441984	437184
6912	403216	398672
7040	388496	384208
7168	1348528	1341376
7296	421776	417552
7424	508304	504000
7552	420880	416048
7680	396800	393584
7808	378144	374752
7936	361216	357088
8064	338240	334544
8192	1270752	1261776
8448	715216	708480
8704	778112	771392
8960	681824	676064
9216	678624	672800
9472	1513984	1505712
9728	668368	662736
9984	621040	615488
10240	570160	563712
10496	548608	543648
10752	913408	906944
11008	696016	690656
11264	599056	593200
11520	567632	562512
11776	869104	862640
12032	539024	533856
12288	529424	523856
12544	502240	498080
12800	485968	481472
13056	680976	675296
13312	494720	490112
13568	475744	471696
13824	461104	457360
14080	437360	433808
14336	762240	757520
14592	464240	460480
14848	435472	431472
15104	398848	395536
15360	544944	541104
15616	431136	427536
15872	439952	436464
16128	406800	403536
16384	949712	941936
16896	761440	755216
17408	720928	714784
17920	869680	863136
18432	718704	713216
18944	1004880	998112
19456	683008	677168
19968	717632	711680
20480	718624	713872
20992	655472	650448
21504	729104	723072
22016	626592	622304
22528	669168	664032
23040	610496	605312
23552	695696	690592
24064	575104	570048
24576	527904	523968
25088	605680	601616
25600	529552	524848
26112	571792	566384
26624	509088	505232
27136	528496	523888
27648	498640	494640
28160	486640	482448
28672	578016	573616
29184	461536	457408
29696	494784	490928
30208	476000	472112
30720	485312	481472
31232	440928	437520
31744	430000	427136
32256	464448	461072
32768	879088	873088
33792	822352	816240
34816	796912	790672
35840	788576	782992
36864	770288	765200
37888	815872	809744
38912	730688	725520
39936	724240	719408
40960	694880	690224
41984	673264	668688
43008	684432	679680
44032	639824	635712
45056	625104	621296
46080	607744	603664
47104	614992	610784
48128	578304	573744
49152	570032	566192
50176	558560	554912
51200	543200	539456
52224	541616	538144
53248	508000	504880
54272	507888	504464
55296	489136	485488
56320	485616	482720
57344	499264	496448
58368	475792	472640
59392	463616	460704
60416	452560	449600
61440	447424	444848
62464	429536	426720
63488	429072	426304
64512	422256	419520
65536	825904	820496
67584	808352	803840
69632	762128	757120
71680	754816	749520
73728	725696	720400
75776	714096	708848
77824	687984	683184
79872	680128	675168
81920	652432	646976
83968	628512	623184
86016	619536	614640
88064	597616	592992
90112	578816	574928
92160	562208	557520
94208	554144	550048
96256	533520	529312
98304	556016	551424
100352	512272	507840
102400	491440	487328
104448	482560	478608
106496	469760	466064
108544	461472	458112
110592	449184	445600
112640	442576	438992
114688	440832	437184
116736	424816	421072
118784	422448	418496
120832	413360	409472
122880	406992	403408
124928	392176	388496
126976	387392	383120
129024	379120	375344
131072	729040	721728
135168	696400	690480
139264	676512	669824
143360	653072	647264
147456	633344	627216
151552	618816	612912
155648	607392	601088
159744	587648	581440
163840	562368	555952
167936	544880	539168
172032	536976	531904
176128	516832	511040
180224	498112	492752
184320	482992	477024
188416	465808	458608
192512	456272	449088
196608	448240	442592
200704	437472	431184
204800	423856	416608
208896	419728	412512
212992	400640	394736
217088	391584	385568
221184	384768	378976
225280	381824	375632
229376	374544	368784
233472	369168	363472
237568	361632	355728
241664	355536	348688
245760	359504	353392
249856	336336	330816
253952	327408	322688
258048	318256	313584
262144	613152	603424
270336	597488	587456
278528	575536	565104
286720	538640	531232
294912	503056	495232
303104	480320	472688
311296	451984	445040
319488	416704	410816
327680	406720	400176
335872	384656	377856
344064	367856	361520
352256	342304	336480
360448	322128	316560
368640	306336	301040
376832	295344	290144
385024	275440	270704
393216	270400	265680
401408	256496	252240
409600	252960	248704
417792	250912	246320
425984	244128	239568
434176	235648	231104
442368	232832	228608
450560	224208	219968
458752	212192	207840
466944	206528	202400
475136	188512	184896
483328	181488	177664
491520	180848	177392
499712	179312	176128
507904	167984	164752
516096	158208	155312
524288	285472	279584
540672	260768	254592
557056	247440	241552
573440	237488	231376
589824	230720	225632
606208	238528	232608
622592	221648	216512
638976	197392	192496
655360	190512	186080
671744	163664	159216
688128	163664	157968
704512	164064	158848
720896	155184	150352
737280	129072	124448
753664	124624	119792
770048	245760	239360
786432	239168	234064
802816	334480	328496
819200	151968	147312
835584	105760	99920
851968	497456	489968
868352	215872	208480
884736	465280	455008
901120	589200	578832
917504	719808	708896
933888	638176	628384
950272	462880	453632
966656	654080	643920
983040	736912	724912
999424	744320	734304
1015808	521120	514128
1032192	348528	341504
1048576	1000496	984416
1081344	1466112	1447328
1114112	919536	908960
1146880	487376	478256
1179648	872688	863264
1212416	331984	327216
1245184	481648	472944
1277952	635824	629616
1310720	314784	309072
1343488	275760	270800
1376256	253232	248000
1409024	788960	779056
1441792	446320	440208
1474560	294352	287872
1507328	431104	423968
1540096	742368	736768
1572864	123744	121200
1605632	323520	318352
1638400	342176	338512
1671168	322896	319472
1703936	334336	329840
1736704	392544	389488
1769472	136416	134176
1802240	270560	267744
1835008	133008	131728
1867776	32112	31136
1900544	27408	26464
1933312	129744	127024
1966080	200640	198448
1998848	32560	31024
2031616	176384	173952
2064384	163056	160512
2097152	428976	424448
2162688	336336	332304
2228224	220720	217920
2293760	158096	156032
2359296	102896	100672
2424832	390656	386576
2490368	269168	265840
2555904	462048	457632
2621440	227872	224912
2686976	231760	228496
2752512	106448	104976
2818048	204400	202224
2883584	122640	121440
2949120	12128	11840
3014656	30064	29520
3080192	203136	200768
3145728	31760	31312
3211264	83600	82576
3276800	147472	146112
3342336	181280	178512
3407872	289024	287536
3473408	11488	11024
3538944	111920	110368
3604480	194592	193296
3670016	103824	102704
3735552	101456	100608
3801088	35936	35680
3866624	37424	36464
3932160	176704	174816
3997696	18480	17904
4063232	180224	178448
4128768	120416	119568
4194304	156176	154720
4325376	187232	186224
4456448	22048	21648
4587520	98352	97184
4718592	73072	72720
4849664	85280	84448
4980736	5504	5200
5111808	95056	94192
5242880	2976	2832
5373952	3808	3184
5505024	177568	176400
5636096	91376	90592
5767168	3584	3024
5898240	168048	167184
6029312	70592	70016
6160384	352	352
6291456	0	0
6422528	32	32
6553600	16	16
6684672	0	0
6815744	16	16
6946816	0	0
7077888	0	0
7208960	16	16
7340032	0	0
7471104	0	0
7602176	0	0
7733248	32	32
7864320	0	0
7995392	16	16
8126464	16	16
8257536	0	0
8388608	16	16
8650752	16	16
8912896	48	32
9175040	32	32
9437184	16	16
9699328	0	0
9961472	16	16
10223616	32	32
10485760	32	32
10747904	32	32
11010048	0	0
11272192	0	0
11534336	16	16
11796480	48	48
12058624	32	32
12320768	16	16
12582912	0	0
12845056	16	0
13107200	16	16
13369344	16	16
13631488	48	48
13893632	64	64
14155776	160	160
14417920	32	32
14680064	80	80
14942208	16	16
15204352	48	48
15466496	32	32
15728640	0	0
15990784	32	32
16252928	32	32
16515072	32	16
16777216	32	32
17301504	80	80
17825792	32	32
18350080	80	80
18874368	32	32
19398656	32	32
19922944	112	96
20447232	112	112
20971520	96	96
21495808	64	64
22020096	16	16
22544384	64	64
23068672	64	64
23592960	48	48
24117248	112	112
24641536	48	48
25165824	112	112
25690112	112	112
26214400	32	32
26738688	64	64
27262976	144	112
27787264	96	96
28311552	48	48
28835840	32	32
29360128	80	80
29884416	128	128
30408704	80	80
30932992	48	48
31457280	64	64
31981568	32	32
32505856	64	64
33030144	48	48
33554432	176	176
34603008	128	128
35651584	208	208
36700160	80	80
37748736	160	160
38797312	64	64
39845888	144	144
40894464	80	80
41943040	144	144
42991616	128	112
44040192	96	96
45088768	160	160
46137344	128	128
47185920	144	144
48234496	128	128
49283072	272	272
50331648	128	128
51380224	144	144
52428800	336	336
53477376	160	160
54525952	160	160
55574528	192	176
56623104	256	256
57671680	208	208
58720256	208	208
59768832	240	240
60817408	160	160
61865984	224	224
62914560	240	240
63963136	176	176
65011712	192	192
66060288	176	176
67108864	320	320
69206016	224	224
71303168	288	288
73400320	304	304
75497472	448	448
77594624	272	272
79691776	432	432
81788928	512	512
83886080	432	432
85983232	336	336
88080384	352	352
90177536	576	576
92274688	448	448
94371840	464	464
96468992	336	336
98566144	384	384
100663296	464	464
102760448	576	576
104857600	368	368
106954752	368	368
109051904	256	256
111149056	496	496
113246208	352	352
115343360	416	416
117440512	352	352
119537664	432	432
121634816	512	512
123731968	528	528
125829120	400	400
127926272	544	544
130023424	512	512
132120576	640	640
134217728	1440	1440
138412032	10264160	10264160
142606336	3370160	3370160
146800640	5748848	5748848
150994944	1306560	1306560
155189248	684512	684512
159383552	2482160	2482160
163577856	1793344	1793344
167772160	1223888	1223888
171966464	670944	670944
176160768	402864	402864
180355072	431008	431008
184549376	4736480	4736480
188743680	1539408	1539408
192937984	362576	362576
197132288	2815072	2815072
201326592	2949136	2949136
205520896	4144736	4144736
209715200	482880	482880
213909504	0	0
218103808	0	0
222298112	0	0
226492416	0	0
230686720	0	0
234881024	0	0
239075328	0	0
243269632	0	0
247463936	0	0
251658240	0	0
255852544	0	0
260046848	0	0
264241152	0	0
268435456	0	0
276824064	0	0
285212672	0	0
293601280	0	0
301989888	0	0
310378496	0	0
318767104	0	0
327155712	0	0
335544320	0	0
343932928	0	0
352321536	0	0
360710144	0	0
369098752	0	0
377487360	0	0
385875968	0	0
394264576	0	0
402653184	0	0
411041792	0	0
419430400	0	0
427819008	0	0
436207616	0	0
444596224	0	0
452984832	0	0
461373440	0	0
469762048	0	0
478150656	0	0
486539264	0	0
494927872	0	0
503316480	0	0
511705088	0	0
520093696	0	0
528482304	0	0
536870912	0	0
553648128	0	0
570425344	0	0
587202560	0	0
603979776	0	0
620756992	0	0
637534208	0	0
654311424	0	0
671088640	0	0
687865856	0	0
704643072	0	0
721420288	0	0
738197504	0	0
754974720	0	0
771751936	0	0
788529152	0	0
805306368	0	0
822083584	0	0
838860800	0	0
855638016	0	0
872415232	0	0
889192448	0	0
905969664	0	0
922746880	0	0
939524096	0	0
956301312	0	0
973078528	0	0
989855744	0	0
1006632960	0	0
1023410176	0	0
1040187392	0	0
1056964608	0	0
1073741824	0	0
1107296256	0	0
1140850688	0	0
1174405120	0	0
1207959552	0	0
1241513984	0	0
1275068416	0	0
1308622848	0	0
1342177280	0	0
1375731712	0	0
1409286144	0	0
1442840576	0	0
1476395008	0	0
1509949440	0	0
1543503872	0	0
1577058304	0	0
1610612736	0	0
1644167168	0	0
1677721600	0	0
1711276032	0	0
1744830464	0	0
1778384896	0	0
1811939328	0	0
1845493760	0	0
1879048192	0	0
1912602624	0	0
1946157056	0	0
1979711488	0	0
2013265920	0	0
2046820352	0	0
2080374784	0	0
2113929216	0	0
2147483648	0	0
2214592512	0	0
2281701376	0	0
2348810240	0	0
2415919104	0	0
2483027968	0	0
2550136832	0	0
2617245696	0	0
2684354560	0	0
2751463424	0	0
2818572288	0	0
2885681152	0	0
2952790016	0	0
3019898880	0	0
3087007744	0	0
3154116608	0	0
3221225472	0	0
3288334336	0	0
3355443200	0	0
3422552064	0	0
3489660928	0	0
3556769792	0	0
3623878656	0	0
3690987520	0	0
3758096384	0	0
3825205248	0	0
3892314112	0	0
3959422976	0	0
4026531840	0	0
4093640704	0	0
4160749568	0	0
4227858432	0	0
~~~~~~~~~~Reuse Distance Profiler output end~~~~~~~~~~

DRAM Statistics
 CHANNEL 0
 RQ ROW_BUFFER_HIT:     130577  ROW_BUFFER_MISS:  106579765
 DBUS AVG_CONGESTED_CYCLE:    3.97908
 WQ ROW_BUFFER_HIT:     798105  ROW_BUFFER_MISS:    9132147  FULL:          0


CPU 0 Branch Prediction Accuracy: 88.7968% MPKI: 27.0363 Average ROB Occupancy at Mispredict: 23.8866
Branch type MPKI
BRANCH_DIRECT_JUMP: 6.66667e-07
BRANCH_INDIRECT: 0
BRANCH_CONDITIONAL: 27.0363
BRANCH_DIRECT_CALL: 0
BRANCH_INDIRECT_CALL: 0
BRANCH_RETURN: 0

