
*** ChampSim Multicore Out-of-Order Simulator ***

Warmup Instructions: 500000000
Simulation Instructions: 1500000000
Number of CPUs: 1
Off-chip DRAM Size: 4 GiB Channels: 1 Width: 64-bit Data Rate: 3200 MT/s

VirtualMemory physical capacity: 8588881920 num_ppages: 2096895
VirtualMemory page size: 4096 log2_page_size: 12

CPU 0 runs traces/429.mcf-22B.champsimtrace.xz
CPU 0 Bimodal branch predictor
Basic BTB sets: 1024 ways: 8 indirect buffer size: 4096 RAS size: 64
Initializing LRU.
Initializing LRU.
Initializing LRU.
Initializing LRU.
Initializing rdLRU.
Initializing LRU.
Initializing LRU.
Heartbeat CPU 0 instructions: 10000003 cycles: 2515191 heartbeat IPC: 3.97584 cumulative IPC: 3.97584 (Simulation time: 0 hr 0 min 40 sec) 
Heartbeat CPU 0 instructions: 20000004 cycles: 5176077 heartbeat IPC: 3.75815 cumulative IPC: 3.86393 (Simulation time: 0 hr 1 min 22 sec) 
Heartbeat CPU 0 instructions: 30000000 cycles: 7719590 heartbeat IPC: 3.93157 cumulative IPC: 3.88622 (Simulation time: 0 hr 2 min 3 sec) 
Heartbeat CPU 0 instructions: 40000003 cycles: 10258046 heartbeat IPC: 3.9394 cumulative IPC: 3.89938 (Simulation time: 0 hr 2 min 43 sec) 
Heartbeat CPU 0 instructions: 50000000 cycles: 12803352 heartbeat IPC: 3.9288 cumulative IPC: 3.90523 (Simulation time: 0 hr 3 min 23 sec) 
Heartbeat CPU 0 instructions: 60000001 cycles: 15358032 heartbeat IPC: 3.91439 cumulative IPC: 3.90675 (Simulation time: 0 hr 4 min 1 sec) 
Heartbeat CPU 0 instructions: 70000001 cycles: 17869930 heartbeat IPC: 3.98105 cumulative IPC: 3.9172 (Simulation time: 0 hr 4 min 39 sec) 
Heartbeat CPU 0 instructions: 80000004 cycles: 20539485 heartbeat IPC: 3.74594 cumulative IPC: 3.89494 (Simulation time: 0 hr 5 min 22 sec) 
Heartbeat CPU 0 instructions: 90000004 cycles: 23124348 heartbeat IPC: 3.86868 cumulative IPC: 3.892 (Simulation time: 0 hr 6 min 1 sec) 
Heartbeat CPU 0 instructions: 100000003 cycles: 25692524 heartbeat IPC: 3.89381 cumulative IPC: 3.89218 (Simulation time: 0 hr 6 min 40 sec) 
Heartbeat CPU 0 instructions: 110000002 cycles: 28379021 heartbeat IPC: 3.72232 cumulative IPC: 3.8761 (Simulation time: 0 hr 7 min 22 sec) 
Heartbeat CPU 0 instructions: 120000000 cycles: 30937869 heartbeat IPC: 3.90801 cumulative IPC: 3.87874 (Simulation time: 0 hr 8 min 1 sec) 
Heartbeat CPU 0 instructions: 130000004 cycles: 33606442 heartbeat IPC: 3.74732 cumulative IPC: 3.86831 (Simulation time: 0 hr 8 min 43 sec) 
Heartbeat CPU 0 instructions: 140000004 cycles: 36134695 heartbeat IPC: 3.9553 cumulative IPC: 3.87439 (Simulation time: 0 hr 9 min 23 sec) 
Heartbeat CPU 0 instructions: 150000000 cycles: 38764499 heartbeat IPC: 3.80256 cumulative IPC: 3.86952 (Simulation time: 0 hr 10 min 7 sec) 
Heartbeat CPU 0 instructions: 160000000 cycles: 41389592 heartbeat IPC: 3.80939 cumulative IPC: 3.86571 (Simulation time: 0 hr 10 min 48 sec) 
Heartbeat CPU 0 instructions: 170000000 cycles: 43924556 heartbeat IPC: 3.94483 cumulative IPC: 3.87027 (Simulation time: 0 hr 11 min 28 sec) 
Heartbeat CPU 0 instructions: 180000000 cycles: 46453164 heartbeat IPC: 3.95475 cumulative IPC: 3.87487 (Simulation time: 0 hr 12 min 7 sec) 
Heartbeat CPU 0 instructions: 190000001 cycles: 49092866 heartbeat IPC: 3.78831 cumulative IPC: 3.87022 (Simulation time: 0 hr 12 min 50 sec) 
Heartbeat CPU 0 instructions: 200000002 cycles: 51633464 heartbeat IPC: 3.93608 cumulative IPC: 3.87346 (Simulation time: 0 hr 13 min 29 sec) 
Heartbeat CPU 0 instructions: 210000000 cycles: 54153976 heartbeat IPC: 3.96745 cumulative IPC: 3.87783 (Simulation time: 0 hr 14 min 8 sec) 
Heartbeat CPU 0 instructions: 220000003 cycles: 56661430 heartbeat IPC: 3.98811 cumulative IPC: 3.88271 (Simulation time: 0 hr 14 min 45 sec) 
Heartbeat CPU 0 instructions: 230000002 cycles: 59368409 heartbeat IPC: 3.69415 cumulative IPC: 3.87411 (Simulation time: 0 hr 15 min 26 sec) 
Heartbeat CPU 0 instructions: 240000002 cycles: 62097671 heartbeat IPC: 3.66399 cumulative IPC: 3.86488 (Simulation time: 0 hr 16 min 10 sec) 
Heartbeat CPU 0 instructions: 250000000 cycles: 64841030 heartbeat IPC: 3.64517 cumulative IPC: 3.85558 (Simulation time: 0 hr 16 min 55 sec) 
Heartbeat CPU 0 instructions: 260000002 cycles: 67362849 heartbeat IPC: 3.96539 cumulative IPC: 3.85969 (Simulation time: 0 hr 17 min 34 sec) 
Heartbeat CPU 0 instructions: 270000002 cycles: 69895358 heartbeat IPC: 3.94865 cumulative IPC: 3.86292 (Simulation time: 0 hr 18 min 14 sec) 
Heartbeat CPU 0 instructions: 280000000 cycles: 72418505 heartbeat IPC: 3.9633 cumulative IPC: 3.86642 (Simulation time: 0 hr 18 min 52 sec) 
Heartbeat CPU 0 instructions: 290000004 cycles: 74981075 heartbeat IPC: 3.90233 cumulative IPC: 3.86764 (Simulation time: 0 hr 19 min 32 sec) 
Heartbeat CPU 0 instructions: 300000004 cycles: 77566238 heartbeat IPC: 3.86823 cumulative IPC: 3.86766 (Simulation time: 0 hr 20 min 14 sec) 
Heartbeat CPU 0 instructions: 310000004 cycles: 80148539 heartbeat IPC: 3.87252 cumulative IPC: 3.86782 (Simulation time: 0 hr 20 min 54 sec) 
Heartbeat CPU 0 instructions: 320000000 cycles: 82881354 heartbeat IPC: 3.65923 cumulative IPC: 3.86094 (Simulation time: 0 hr 21 min 38 sec) 
Heartbeat CPU 0 instructions: 330000004 cycles: 85412765 heartbeat IPC: 3.95037 cumulative IPC: 3.86359 (Simulation time: 0 hr 22 min 18 sec) 
Heartbeat CPU 0 instructions: 340000001 cycles: 88032691 heartbeat IPC: 3.8169 cumulative IPC: 3.8622 (Simulation time: 0 hr 22 min 58 sec) 
Heartbeat CPU 0 instructions: 350000002 cycles: 90694011 heartbeat IPC: 3.75753 cumulative IPC: 3.85913 (Simulation time: 0 hr 23 min 38 sec) 
Heartbeat CPU 0 instructions: 360000004 cycles: 93257061 heartbeat IPC: 3.9016 cumulative IPC: 3.8603 (Simulation time: 0 hr 24 min 17 sec) 
Heartbeat CPU 0 instructions: 370000002 cycles: 96032606 heartbeat IPC: 3.6029 cumulative IPC: 3.85286 (Simulation time: 0 hr 25 min 13 sec) 
Heartbeat CPU 0 instructions: 380000003 cycles: 98574472 heartbeat IPC: 3.93412 cumulative IPC: 3.85495 (Simulation time: 0 hr 25 min 55 sec) 
Heartbeat CPU 0 instructions: 390000002 cycles: 101164110 heartbeat IPC: 3.86154 cumulative IPC: 3.85512 (Simulation time: 0 hr 26 min 36 sec) 
Heartbeat CPU 0 instructions: 400000003 cycles: 103799697 heartbeat IPC: 3.79422 cumulative IPC: 3.85358 (Simulation time: 0 hr 27 min 17 sec) 
Heartbeat CPU 0 instructions: 410000000 cycles: 106378802 heartbeat IPC: 3.87731 cumulative IPC: 3.85415 (Simulation time: 0 hr 27 min 58 sec) 
Heartbeat CPU 0 instructions: 420000000 cycles: 109023626 heartbeat IPC: 3.78097 cumulative IPC: 3.85238 (Simulation time: 0 hr 28 min 44 sec) 
Heartbeat CPU 0 instructions: 430000003 cycles: 111551036 heartbeat IPC: 3.95662 cumulative IPC: 3.85474 (Simulation time: 0 hr 29 min 24 sec) 
Heartbeat CPU 0 instructions: 440000000 cycles: 114085624 heartbeat IPC: 3.94541 cumulative IPC: 3.85675 (Simulation time: 0 hr 30 min 4 sec) 
Heartbeat CPU 0 instructions: 450000001 cycles: 116599998 heartbeat IPC: 3.97713 cumulative IPC: 3.85935 (Simulation time: 0 hr 30 min 44 sec) 
Heartbeat CPU 0 instructions: 460000000 cycles: 119259156 heartbeat IPC: 3.76059 cumulative IPC: 3.85715 (Simulation time: 0 hr 31 min 25 sec) 
Heartbeat CPU 0 instructions: 470000001 cycles: 121843454 heartbeat IPC: 3.86952 cumulative IPC: 3.85741 (Simulation time: 0 hr 32 min 7 sec) 
Heartbeat CPU 0 instructions: 480000001 cycles: 124393809 heartbeat IPC: 3.92102 cumulative IPC: 3.85871 (Simulation time: 0 hr 32 min 50 sec) 
Heartbeat CPU 0 instructions: 490000004 cycles: 126917467 heartbeat IPC: 3.9625 cumulative IPC: 3.86078 (Simulation time: 0 hr 33 min 29 sec) 
Heartbeat CPU 0 instructions: 500000002 cycles: 129697730 heartbeat IPC: 3.59678 cumulative IPC: 3.85512 (Simulation time: 0 hr 34 min 16 sec) 

Warmup complete CPU 0 instructions: 500000002 cycles: 129697730 (Simulation time: 0 hr 34 min 16 sec) 

Heartbeat CPU 0 instructions: 510000004 cycles: 166179452 heartbeat IPC: 0.27411 cumulative IPC: 0.27411 (Simulation time: 0 hr 36 min 20 sec) 
Heartbeat CPU 0 instructions: 520000002 cycles: 198103189 heartbeat IPC: 0.313246 cumulative IPC: 0.292374 (Simulation time: 0 hr 38 min 16 sec) 
Heartbeat CPU 0 instructions: 530000001 cycles: 238883948 heartbeat IPC: 0.245214 cumulative IPC: 0.27476 (Simulation time: 0 hr 40 min 34 sec) 
Heartbeat CPU 0 instructions: 540000000 cycles: 272427669 heartbeat IPC: 0.298118 cumulative IPC: 0.28025 (Simulation time: 0 hr 44 min 15 sec) 
Heartbeat CPU 0 instructions: 550000002 cycles: 316648168 heartbeat IPC: 0.22614 cumulative IPC: 0.267451 (Simulation time: 0 hr 48 min 4 sec) 
Heartbeat CPU 0 instructions: 560000002 cycles: 366992345 heartbeat IPC: 0.198633 cumulative IPC: 0.25285 (Simulation time: 0 hr 50 min 40 sec) 
Heartbeat CPU 0 instructions: 570000000 cycles: 407310177 heartbeat IPC: 0.248029 cumulative IPC: 0.25215 (Simulation time: 0 hr 52 min 45 sec) 
Heartbeat CPU 0 instructions: 580000001 cycles: 443794397 heartbeat IPC: 0.274091 cumulative IPC: 0.254699 (Simulation time: 0 hr 54 min 26 sec) 
Heartbeat CPU 0 instructions: 590000000 cycles: 482124826 heartbeat IPC: 0.260889 cumulative IPC: 0.255372 (Simulation time: 0 hr 57 min 41 sec) 
Heartbeat CPU 0 instructions: 600000004 cycles: 505200591 heartbeat IPC: 0.433355 cumulative IPC: 0.26631 (Simulation time: 0 hr 59 min 13 sec) 
Heartbeat CPU 0 instructions: 610000000 cycles: 531000240 heartbeat IPC: 0.387602 cumulative IPC: 0.274107 (Simulation time: 1 hr 0 min 58 sec) 
Heartbeat CPU 0 instructions: 620000003 cycles: 559544681 heartbeat IPC: 0.350331 cumulative IPC: 0.279169 (Simulation time: 1 hr 2 min 59 sec) 
Heartbeat CPU 0 instructions: 630000003 cycles: 612307651 heartbeat IPC: 0.189527 cumulative IPC: 0.269369 (Simulation time: 1 hr 6 min 32 sec) 
Heartbeat CPU 0 instructions: 640000003 cycles: 641702217 heartbeat IPC: 0.340199 cumulative IPC: 0.273435 (Simulation time: 1 hr 9 min 13 sec) 
Heartbeat CPU 0 instructions: 650000003 cycles: 695483585 heartbeat IPC: 0.185938 cumulative IPC: 0.265118 (Simulation time: 1 hr 13 min 29 sec) 
Heartbeat CPU 0 instructions: 660000001 cycles: 727286968 heartbeat IPC: 0.314432 cumulative IPC: 0.267742 (Simulation time: 1 hr 15 min 39 sec) 
Heartbeat CPU 0 instructions: 670000000 cycles: 755731906 heartbeat IPC: 0.351556 cumulative IPC: 0.271551 (Simulation time: 1 hr 17 min 30 sec) 
Heartbeat CPU 0 instructions: 680000000 cycles: 788920490 heartbeat IPC: 0.301308 cumulative IPC: 0.273049 (Simulation time: 1 hr 20 min 7 sec) 
Heartbeat CPU 0 instructions: 690000002 cycles: 828700908 heartbeat IPC: 0.25138 cumulative IPC: 0.271816 (Simulation time: 1 hr 22 min 8 sec) 
Heartbeat CPU 0 instructions: 700000002 cycles: 864423489 heartbeat IPC: 0.279935 cumulative IPC: 0.27221 (Simulation time: 1 hr 23 min 57 sec) 
Heartbeat CPU 0 instructions: 710000000 cycles: 892344566 heartbeat IPC: 0.358152 cumulative IPC: 0.275357 (Simulation time: 1 hr 25 min 48 sec) 
Heartbeat CPU 0 instructions: 720000000 cycles: 933548592 heartbeat IPC: 0.242695 cumulative IPC: 0.273683 (Simulation time: 1 hr 28 min 20 sec) 
Heartbeat CPU 0 instructions: 730000002 cycles: 964766616 heartbeat IPC: 0.320328 cumulative IPC: 0.275426 (Simulation time: 1 hr 30 min 11 sec) 
Heartbeat CPU 0 instructions: 740000001 cycles: 990738356 heartbeat IPC: 0.385034 cumulative IPC: 0.278732 (Simulation time: 1 hr 31 min 58 sec) 
Heartbeat CPU 0 instructions: 750000000 cycles: 1012466209 heartbeat IPC: 0.460239 cumulative IPC: 0.2832 (Simulation time: 1 hr 33 min 31 sec) 
Heartbeat CPU 0 instructions: 760000004 cycles: 1045984150 heartbeat IPC: 0.298348 cumulative IPC: 0.283754 (Simulation time: 1 hr 35 min 20 sec) 
Heartbeat CPU 0 instructions: 770000003 cycles: 1099983622 heartbeat IPC: 0.185187 cumulative IPC: 0.278269 (Simulation time: 1 hr 38 min 23 sec) 
Heartbeat CPU 0 instructions: 780000001 cycles: 1131624369 heartbeat IPC: 0.316048 cumulative IPC: 0.279462 (Simulation time: 1 hr 41 min 13 sec) 
Heartbeat CPU 0 instructions: 790000000 cycles: 1171799584 heartbeat IPC: 0.24891 cumulative IPC: 0.278284 (Simulation time: 1 hr 44 min 23 sec) 
Heartbeat CPU 0 instructions: 800000000 cycles: 1211187595 heartbeat IPC: 0.253884 cumulative IPC: 0.277395 (Simulation time: 1 hr 47 min 16 sec) 
Heartbeat CPU 0 instructions: 810000004 cycles: 1255664386 heartbeat IPC: 0.224836 cumulative IPC: 0.275319 (Simulation time: 1 hr 49 min 20 sec) 
Heartbeat CPU 0 instructions: 820000003 cycles: 1278828108 heartbeat IPC: 0.431709 cumulative IPC: 0.278471 (Simulation time: 1 hr 50 min 49 sec) 
Heartbeat CPU 0 instructions: 830000002 cycles: 1299602720 heartbeat IPC: 0.481357 cumulative IPC: 0.282074 (Simulation time: 1 hr 52 min 18 sec) 
Heartbeat CPU 0 instructions: 840000004 cycles: 1337475180 heartbeat IPC: 0.264044 cumulative IPC: 0.281509 (Simulation time: 1 hr 54 min 27 sec) 
Heartbeat CPU 0 instructions: 850000000 cycles: 1366358529 heartbeat IPC: 0.34622 cumulative IPC: 0.28302 (Simulation time: 1 hr 56 min 30 sec) 
Heartbeat CPU 0 instructions: 860000001 cycles: 1406358443 heartbeat IPC: 0.250001 cumulative IPC: 0.281986 (Simulation time: 1 hr 58 min 43 sec) 
Heartbeat CPU 0 instructions: 870000000 cycles: 1433398410 heartbeat IPC: 0.369823 cumulative IPC: 0.283807 (Simulation time: 2 hr 2 min 0 sec) 
Heartbeat CPU 0 instructions: 880000002 cycles: 1471647134 heartbeat IPC: 0.261447 cumulative IPC: 0.28317 (Simulation time: 2 hr 5 min 23 sec) 
Heartbeat CPU 0 instructions: 890000001 cycles: 1506115702 heartbeat IPC: 0.290119 cumulative IPC: 0.283344 (Simulation time: 2 hr 7 min 22 sec) 
Heartbeat CPU 0 instructions: 900000003 cycles: 1535518745 heartbeat IPC: 0.340101 cumulative IPC: 0.284531 (Simulation time: 2 hr 9 min 31 sec) 
Heartbeat CPU 0 instructions: 910000003 cycles: 1558001731 heartbeat IPC: 0.444781 cumulative IPC: 0.287054 (Simulation time: 2 hr 11 min 20 sec) 
Heartbeat CPU 0 instructions: 920000004 cycles: 1586166845 heartbeat IPC: 0.355049 cumulative IPC: 0.288369 (Simulation time: 2 hr 13 min 32 sec) 
Heartbeat CPU 0 instructions: 930000000 cycles: 1617470412 heartbeat IPC: 0.319452 cumulative IPC: 0.289023 (Simulation time: 2 hr 15 min 19 sec) 
Heartbeat CPU 0 instructions: 940000001 cycles: 1644843999 heartbeat IPC: 0.365316 cumulative IPC: 0.290401 (Simulation time: 2 hr 17 min 4 sec) 
Heartbeat CPU 0 instructions: 950000003 cycles: 1679082009 heartbeat IPC: 0.292073 cumulative IPC: 0.290438 (Simulation time: 2 hr 19 min 26 sec) 
Heartbeat CPU 0 instructions: 960000004 cycles: 1703396170 heartbeat IPC: 0.411283 cumulative IPC: 0.292305 (Simulation time: 2 hr 21 min 4 sec) 
Heartbeat CPU 0 instructions: 970000000 cycles: 1738567343 heartbeat IPC: 0.284324 cumulative IPC: 0.292131 (Simulation time: 2 hr 22 min 47 sec) 
Heartbeat CPU 0 instructions: 980000004 cycles: 1762341599 heartbeat IPC: 0.420623 cumulative IPC: 0.294002 (Simulation time: 2 hr 24 min 23 sec) 
Heartbeat CPU 0 instructions: 990000000 cycles: 1785071821 heartbeat IPC: 0.439943 cumulative IPC: 0.296006 (Simulation time: 2 hr 25 min 58 sec) 
Heartbeat CPU 0 instructions: 1000000000 cycles: 1827517880 heartbeat IPC: 0.235593 cumulative IPC: 0.294495 (Simulation time: 2 hr 27 min 54 sec) 
Heartbeat CPU 0 instructions: 1010000002 cycles: 1855241214 heartbeat IPC: 0.360707 cumulative IPC: 0.295559 (Simulation time: 2 hr 29 min 40 sec) 
Heartbeat CPU 0 instructions: 1020000002 cycles: 1885926429 heartbeat IPC: 0.32589 cumulative IPC: 0.296089 (Simulation time: 2 hr 31 min 29 sec) 
Heartbeat CPU 0 instructions: 1030000000 cycles: 1942242322 heartbeat IPC: 0.17757 cumulative IPC: 0.292407 (Simulation time: 2 hr 34 min 8 sec) 
Heartbeat CPU 0 instructions: 1040000003 cycles: 1976344343 heartbeat IPC: 0.293238 cumulative IPC: 0.292422 (Simulation time: 2 hr 36 min 24 sec) 
Heartbeat CPU 0 instructions: 1050000000 cycles: 2006726871 heartbeat IPC: 0.329136 cumulative IPC: 0.293016 (Simulation time: 2 hr 38 min 23 sec) 
Heartbeat CPU 0 instructions: 1060000001 cycles: 2035074119 heartbeat IPC: 0.352768 cumulative IPC: 0.293905 (Simulation time: 2 hr 40 min 11 sec) 
Heartbeat CPU 0 instructions: 1070000003 cycles: 2056731253 heartbeat IPC: 0.461742 cumulative IPC: 0.295791 (Simulation time: 2 hr 41 min 40 sec) 
Heartbeat CPU 0 instructions: 1080000002 cycles: 2090330400 heartbeat IPC: 0.297627 cumulative IPC: 0.295823 (Simulation time: 2 hr 43 min 30 sec) 
Heartbeat CPU 0 instructions: 1090000002 cycles: 2135402037 heartbeat IPC: 0.221869 cumulative IPC: 0.294161 (Simulation time: 2 hr 45 min 48 sec) 
Heartbeat CPU 0 instructions: 1100000000 cycles: 2180459547 heartbeat IPC: 0.221939 cumulative IPC: 0.292574 (Simulation time: 2 hr 47 min 55 sec) 
Heartbeat CPU 0 instructions: 1110000001 cycles: 2223586497 heartbeat IPC: 0.231874 cumulative IPC: 0.291324 (Simulation time: 2 hr 49 min 56 sec) 
Heartbeat CPU 0 instructions: 1120000002 cycles: 2271981027 heartbeat IPC: 0.206635 cumulative IPC: 0.289411 (Simulation time: 2 hr 52 min 32 sec) 
Heartbeat CPU 0 instructions: 1130000003 cycles: 2299317210 heartbeat IPC: 0.365816 cumulative IPC: 0.290374 (Simulation time: 2 hr 54 min 27 sec) 
Heartbeat CPU 0 instructions: 1140000000 cycles: 2323732662 heartbeat IPC: 0.409577 cumulative IPC: 0.2917 (Simulation time: 2 hr 55 min 47 sec) 
Heartbeat CPU 0 instructions: 1150000004 cycles: 2359160151 heartbeat IPC: 0.282267 cumulative IPC: 0.29155 (Simulation time: 2 hr 57 min 35 sec) 
Heartbeat CPU 0 instructions: 1160000000 cycles: 2393617302 heartbeat IPC: 0.290215 cumulative IPC: 0.29153 (Simulation time: 2 hr 59 min 19 sec) 
Heartbeat CPU 0 instructions: 1170000001 cycles: 2410019014 heartbeat IPC: 0.609693 cumulative IPC: 0.293818 (Simulation time: 3 hr 0 min 34 sec) 
Heartbeat CPU 0 instructions: 1180000004 cycles: 2450200275 heartbeat IPC: 0.248872 cumulative IPC: 0.29304 (Simulation time: 3 hr 2 min 27 sec) 
Heartbeat CPU 0 instructions: 1190000001 cycles: 2473711666 heartbeat IPC: 0.425326 cumulative IPC: 0.294367 (Simulation time: 3 hr 4 min 5 sec) 
Heartbeat CPU 0 instructions: 1200000004 cycles: 2504704574 heartbeat IPC: 0.322655 cumulative IPC: 0.294736 (Simulation time: 3 hr 5 min 52 sec) 
Heartbeat CPU 0 instructions: 1210000002 cycles: 2541712288 heartbeat IPC: 0.270214 cumulative IPC: 0.29436 (Simulation time: 3 hr 7 min 50 sec) 
Heartbeat CPU 0 instructions: 1220000000 cycles: 2574622334 heartbeat IPC: 0.303859 cumulative IPC: 0.294488 (Simulation time: 3 hr 10 min 8 sec) 
Heartbeat CPU 0 instructions: 1230000002 cycles: 2624493086 heartbeat IPC: 0.200518 cumulative IPC: 0.292609 (Simulation time: 3 hr 12 min 44 sec) 
Heartbeat CPU 0 instructions: 1240000003 cycles: 2666278317 heartbeat IPC: 0.239319 cumulative IPC: 0.291731 (Simulation time: 3 hr 14 min 40 sec) 
Heartbeat CPU 0 instructions: 1250000001 cycles: 2702481758 heartbeat IPC: 0.276217 cumulative IPC: 0.291513 (Simulation time: 3 hr 16 min 34 sec) 
Heartbeat CPU 0 instructions: 1260000002 cycles: 2727931591 heartbeat IPC: 0.39293 cumulative IPC: 0.292506 (Simulation time: 3 hr 18 min 14 sec) 
Heartbeat CPU 0 instructions: 1270000003 cycles: 2762580350 heartbeat IPC: 0.288611 cumulative IPC: 0.292455 (Simulation time: 3 hr 20 min 2 sec) 
Heartbeat CPU 0 instructions: 1280000001 cycles: 2808755821 heartbeat IPC: 0.216565 cumulative IPC: 0.291147 (Simulation time: 3 hr 22 min 5 sec) 
Heartbeat CPU 0 instructions: 1290000001 cycles: 2848029476 heartbeat IPC: 0.254624 cumulative IPC: 0.290619 (Simulation time: 3 hr 24 min 5 sec) 
Heartbeat CPU 0 instructions: 1300000001 cycles: 2894121595 heartbeat IPC: 0.216957 cumulative IPC: 0.289391 (Simulation time: 3 hr 26 min 20 sec) 
Heartbeat CPU 0 instructions: 1310000000 cycles: 2945723392 heartbeat IPC: 0.193792 cumulative IPC: 0.287639 (Simulation time: 3 hr 29 min 9 sec) 
Heartbeat CPU 0 instructions: 1320000001 cycles: 2969655373 heartbeat IPC: 0.417851 cumulative IPC: 0.288737 (Simulation time: 3 hr 30 min 48 sec) 
Heartbeat CPU 0 instructions: 1330000002 cycles: 3018705664 heartbeat IPC: 0.203872 cumulative IPC: 0.287296 (Simulation time: 3 hr 32 min 55 sec) 
Heartbeat CPU 0 instructions: 1340000002 cycles: 3052829590 heartbeat IPC: 0.29305 cumulative IPC: 0.287363 (Simulation time: 3 hr 34 min 40 sec) 
Heartbeat CPU 0 instructions: 1350000002 cycles: 3091051148 heartbeat IPC: 0.261632 cumulative IPC: 0.287031 (Simulation time: 3 hr 36 min 35 sec) 
Heartbeat CPU 0 instructions: 1360000003 cycles: 3110075375 heartbeat IPC: 0.525646 cumulative IPC: 0.288554 (Simulation time: 3 hr 37 min 53 sec) 
Heartbeat CPU 0 instructions: 1370000001 cycles: 3150995757 heartbeat IPC: 0.244377 cumulative IPC: 0.287956 (Simulation time: 3 hr 39 min 42 sec) 
Heartbeat CPU 0 instructions: 1380000004 cycles: 3186093334 heartbeat IPC: 0.28492 cumulative IPC: 0.287921 (Simulation time: 3 hr 41 min 37 sec) 
Heartbeat CPU 0 instructions: 1390000003 cycles: 3223370290 heartbeat IPC: 0.268262 cumulative IPC: 0.287684 (Simulation time: 3 hr 43 min 51 sec) 
Heartbeat CPU 0 instructions: 1400000003 cycles: 3266324788 heartbeat IPC: 0.232804 cumulative IPC: 0.286932 (Simulation time: 3 hr 46 min 16 sec) 
Heartbeat CPU 0 instructions: 1410000000 cycles: 3313610193 heartbeat IPC: 0.211482 cumulative IPC: 0.285812 (Simulation time: 3 hr 48 min 24 sec) 
Heartbeat CPU 0 instructions: 1420000000 cycles: 3345635027 heartbeat IPC: 0.312258 cumulative IPC: 0.286075 (Simulation time: 3 hr 50 min 13 sec) 
Heartbeat CPU 0 instructions: 1430000002 cycles: 3367728241 heartbeat IPC: 0.452628 cumulative IPC: 0.287212 (Simulation time: 3 hr 51 min 51 sec) 
Heartbeat CPU 0 instructions: 1440000000 cycles: 3386305969 heartbeat IPC: 0.538279 cumulative IPC: 0.288644 (Simulation time: 3 hr 53 min 8 sec) 
Heartbeat CPU 0 instructions: 1450000000 cycles: 3411401113 heartbeat IPC: 0.398483 cumulative IPC: 0.289484 (Simulation time: 3 hr 54 min 47 sec) 
Heartbeat CPU 0 instructions: 1460000001 cycles: 3441316658 heartbeat IPC: 0.334274 cumulative IPC: 0.289888 (Simulation time: 3 hr 56 min 32 sec) 
Heartbeat CPU 0 instructions: 1470000000 cycles: 3499189544 heartbeat IPC: 0.172792 cumulative IPC: 0.287877 (Simulation time: 3 hr 59 min 5 sec) 
Heartbeat CPU 0 instructions: 1480000000 cycles: 3537954534 heartbeat IPC: 0.257965 cumulative IPC: 0.287537 (Simulation time: 4 hr 1 min 10 sec) 
Heartbeat CPU 0 instructions: 1490000003 cycles: 3573301496 heartbeat IPC: 0.28291 cumulative IPC: 0.28749 (Simulation time: 4 hr 3 min 11 sec) 
Heartbeat CPU 0 instructions: 1500000000 cycles: 3605907910 heartbeat IPC: 0.306688 cumulative IPC: 0.28767 (Simulation time: 4 hr 4 min 56 sec) 
Heartbeat CPU 0 instructions: 1510000003 cycles: 3630739414 heartbeat IPC: 0.402714 cumulative IPC: 0.288486 (Simulation time: 4 hr 6 min 34 sec) 
Heartbeat CPU 0 instructions: 1520000003 cycles: 3667777301 heartbeat IPC: 0.269994 cumulative IPC: 0.288292 (Simulation time: 4 hr 8 min 17 sec) 
Heartbeat CPU 0 instructions: 1530000004 cycles: 3698665877 heartbeat IPC: 0.323744 cumulative IPC: 0.288599 (Simulation time: 4 hr 10 min 5 sec) 
Heartbeat CPU 0 instructions: 1540000004 cycles: 3728458277 heartbeat IPC: 0.335656 cumulative IPC: 0.288988 (Simulation time: 4 hr 11 min 49 sec) 
Heartbeat CPU 0 instructions: 1550000001 cycles: 3754535263 heartbeat IPC: 0.38348 cumulative IPC: 0.289668 (Simulation time: 4 hr 13 min 37 sec) 
Heartbeat CPU 0 instructions: 1560000003 cycles: 3778255122 heartbeat IPC: 0.421588 cumulative IPC: 0.290526 (Simulation time: 4 hr 15 min 17 sec) 
Heartbeat CPU 0 instructions: 1570000003 cycles: 3808420953 heartbeat IPC: 0.331501 cumulative IPC: 0.290862 (Simulation time: 4 hr 17 min 20 sec) 
Heartbeat CPU 0 instructions: 1580000000 cycles: 3844305125 heartbeat IPC: 0.278674 cumulative IPC: 0.290744 (Simulation time: 4 hr 19 min 17 sec) 
Heartbeat CPU 0 instructions: 1590000004 cycles: 3877374735 heartbeat IPC: 0.302393 cumulative IPC: 0.290847 (Simulation time: 4 hr 21 min 11 sec) 
Heartbeat CPU 0 instructions: 1600000002 cycles: 3900851033 heartbeat IPC: 0.425961 cumulative IPC: 0.291688 (Simulation time: 4 hr 22 min 49 sec) 
Heartbeat CPU 0 instructions: 1610000001 cycles: 3931907338 heartbeat IPC: 0.321996 cumulative IPC: 0.291936 (Simulation time: 4 hr 24 min 34 sec) 
Heartbeat CPU 0 instructions: 1620000000 cycles: 3977092246 heartbeat IPC: 0.221313 cumulative IPC: 0.291106 (Simulation time: 4 hr 26 min 40 sec) 
Heartbeat CPU 0 instructions: 1630000004 cycles: 4011584923 heartbeat IPC: 0.289917 cumulative IPC: 0.291096 (Simulation time: 4 hr 28 min 31 sec) 
Heartbeat CPU 0 instructions: 1640000002 cycles: 4038782854 heartbeat IPC: 0.367675 cumulative IPC: 0.291628 (Simulation time: 4 hr 30 min 21 sec) 
Heartbeat CPU 0 instructions: 1650000000 cycles: 4074702122 heartbeat IPC: 0.278402 cumulative IPC: 0.291508 (Simulation time: 4 hr 32 min 40 sec) 
Heartbeat CPU 0 instructions: 1660000000 cycles: 4109439504 heartbeat IPC: 0.287874 cumulative IPC: 0.291476 (Simulation time: 4 hr 34 min 35 sec) 
Heartbeat CPU 0 instructions: 1670000003 cycles: 4164627227 heartbeat IPC: 0.1812 cumulative IPC: 0.289968 (Simulation time: 4 hr 36 min 53 sec) 
Heartbeat CPU 0 instructions: 1680000003 cycles: 4193404969 heartbeat IPC: 0.347491 cumulative IPC: 0.290375 (Simulation time: 4 hr 38 min 49 sec) 
Heartbeat CPU 0 instructions: 1690000003 cycles: 4218347150 heartbeat IPC: 0.400927 cumulative IPC: 0.29105 (Simulation time: 4 hr 40 min 26 sec) 
Heartbeat CPU 0 instructions: 1700000004 cycles: 4239805435 heartbeat IPC: 0.466021 cumulative IPC: 0.291963 (Simulation time: 4 hr 41 min 50 sec) 
Heartbeat CPU 0 instructions: 1710000001 cycles: 4274351744 heartbeat IPC: 0.289466 cumulative IPC: 0.291942 (Simulation time: 4 hr 43 min 38 sec) 
Heartbeat CPU 0 instructions: 1720000002 cycles: 4297202703 heartbeat IPC: 0.437618 cumulative IPC: 0.292741 (Simulation time: 4 hr 45 min 12 sec) 
Heartbeat CPU 0 instructions: 1730000002 cycles: 4334003761 heartbeat IPC: 0.271731 cumulative IPC: 0.292557 (Simulation time: 4 hr 47 min 13 sec) 
Heartbeat CPU 0 instructions: 1740000004 cycles: 4374387866 heartbeat IPC: 0.247622 cumulative IPC: 0.29213 (Simulation time: 4 hr 49 min 47 sec) 
Heartbeat CPU 0 instructions: 1750000004 cycles: 4402876842 heartbeat IPC: 0.351013 cumulative IPC: 0.292522 (Simulation time: 4 hr 51 min 37 sec) 
Heartbeat CPU 0 instructions: 1760000002 cycles: 4423921132 heartbeat IPC: 0.475188 cumulative IPC: 0.293417 (Simulation time: 4 hr 53 min 3 sec) 
Heartbeat CPU 0 instructions: 1770000004 cycles: 4455430324 heartbeat IPC: 0.317368 cumulative IPC: 0.293592 (Simulation time: 4 hr 54 min 52 sec) 
Heartbeat CPU 0 instructions: 1780000003 cycles: 4484811657 heartbeat IPC: 0.340352 cumulative IPC: 0.293907 (Simulation time: 4 hr 56 min 36 sec) 
Heartbeat CPU 0 instructions: 1790000001 cycles: 4514380079 heartbeat IPC: 0.338199 cumulative IPC: 0.294206 (Simulation time: 4 hr 58 min 14 sec) 
Heartbeat CPU 0 instructions: 1800000003 cycles: 4598402699 heartbeat IPC: 0.119016 cumulative IPC: 0.290912 (Simulation time: 5 hr 1 min 8 sec) 
Heartbeat CPU 0 instructions: 1810000000 cycles: 4619379217 heartbeat IPC: 0.476723 cumulative IPC: 0.29178 (Simulation time: 5 hr 2 min 37 sec) 
Heartbeat CPU 0 instructions: 1820000000 cycles: 4655784385 heartbeat IPC: 0.274686 cumulative IPC: 0.291643 (Simulation time: 5 hr 4 min 47 sec) 
Heartbeat CPU 0 instructions: 1830000001 cycles: 4705155684 heartbeat IPC: 0.202547 cumulative IPC: 0.290681 (Simulation time: 5 hr 7 min 25 sec) 
Heartbeat CPU 0 instructions: 1840000000 cycles: 4735888207 heartbeat IPC: 0.325388 cumulative IPC: 0.290913 (Simulation time: 5 hr 9 min 6 sec) 
Heartbeat CPU 0 instructions: 1850000004 cycles: 4768023882 heartbeat IPC: 0.311181 cumulative IPC: 0.291053 (Simulation time: 5 hr 10 min 53 sec) 
Heartbeat CPU 0 instructions: 1860000001 cycles: 4805662670 heartbeat IPC: 0.265683 cumulative IPC: 0.290849 (Simulation time: 5 hr 12 min 48 sec) 
Heartbeat CPU 0 instructions: 1870000002 cycles: 4831967595 heartbeat IPC: 0.380157 cumulative IPC: 0.291349 (Simulation time: 5 hr 14 min 28 sec) 
Heartbeat CPU 0 instructions: 1880000003 cycles: 4872746291 heartbeat IPC: 0.245226 cumulative IPC: 0.290952 (Simulation time: 5 hr 16 min 35 sec) 
Heartbeat CPU 0 instructions: 1890000001 cycles: 4911844088 heartbeat IPC: 0.255769 cumulative IPC: 0.290664 (Simulation time: 5 hr 18 min 34 sec) 
Heartbeat CPU 0 instructions: 1900000002 cycles: 4963054614 heartbeat IPC: 0.195272 cumulative IPC: 0.289654 (Simulation time: 5 hr 20 min 53 sec) 
Heartbeat CPU 0 instructions: 1910000002 cycles: 5008495443 heartbeat IPC: 0.220066 cumulative IPC: 0.289006 (Simulation time: 5 hr 23 min 20 sec) 
Heartbeat CPU 0 instructions: 1920000000 cycles: 5094405098 heartbeat IPC: 0.116401 cumulative IPC: 0.286019 (Simulation time: 5 hr 26 min 31 sec) 
Heartbeat CPU 0 instructions: 1930000004 cycles: 5119553604 heartbeat IPC: 0.397638 cumulative IPC: 0.286581 (Simulation time: 5 hr 28 min 21 sec) 
Heartbeat CPU 0 instructions: 1940000003 cycles: 5144305963 heartbeat IPC: 0.404002 cumulative IPC: 0.287161 (Simulation time: 5 hr 29 min 56 sec) 
Heartbeat CPU 0 instructions: 1950000003 cycles: 5166772469 heartbeat IPC: 0.445107 cumulative IPC: 0.287865 (Simulation time: 5 hr 31 min 24 sec) 
Heartbeat CPU 0 instructions: 1960000001 cycles: 5197068151 heartbeat IPC: 0.33008 cumulative IPC: 0.288118 (Simulation time: 5 hr 33 min 0 sec) 
Heartbeat CPU 0 instructions: 1970000000 cycles: 5252742638 heartbeat IPC: 0.179615 cumulative IPC: 0.286939 (Simulation time: 5 hr 35 min 12 sec) 
Heartbeat CPU 0 instructions: 1980000000 cycles: 5298784784 heartbeat IPC: 0.217192 cumulative IPC: 0.286317 (Simulation time: 5 hr 37 min 17 sec) 
Heartbeat CPU 0 instructions: 1990000004 cycles: 5321052815 heartbeat IPC: 0.449074 cumulative IPC: 0.287016 (Simulation time: 5 hr 38 min 52 sec) 
*** Reached end of trace: traces/429.mcf-22B.champsimtrace.xz
Heartbeat CPU 0 instructions: 2000000003 cycles: 5350271355 heartbeat IPC: 0.342248 cumulative IPC: 0.287325 (Simulation time: 5 hr 40 min 43 sec) 
Finished CPU 0 instructions: 1500000001 cycles: 5220573625 cumulative IPC: 0.287325 (Simulation time: 5 hr 40 min 43 sec) 

ChampSim completed all CPUs

Region of Interest Statistics

CPU 0 cumulative IPC: 0.287325 instructions: 1500000001 cycles: 5220573625
cpu0_DTLB TOTAL     ACCESS:  327645144  HIT:  320670859  MISS:    6974285
cpu0_DTLB LOAD      ACCESS:  192565662  HIT:  185620016  MISS:    6945646
cpu0_DTLB RFO       ACCESS:  135079482  HIT:  135050843  MISS:      28639
cpu0_DTLB PREFETCH  ACCESS:          0  HIT:          0  MISS:          0
cpu0_DTLB WRITEBACK ACCESS:          0  HIT:          0  MISS:          0
cpu0_DTLB TRANSLATION ACCESS:          0  HIT:          0  MISS:          0
cpu0_DTLB PREFETCH  REQUESTED:          0  ISSUED:          0  USEFUL:          0  USELESS:          0
cpu0_DTLB AVERAGE MISS LATENCY: 28.2483 cycles
cpu0_ITLB TOTAL     ACCESS:  107907509  HIT:  107907509  MISS:          0
cpu0_ITLB LOAD      ACCESS:  107907509  HIT:  107907509  MISS:          0
cpu0_ITLB RFO       ACCESS:          0  HIT:          0  MISS:          0
cpu0_ITLB PREFETCH  ACCESS:          0  HIT:          0  MISS:          0
cpu0_ITLB WRITEBACK ACCESS:          0  HIT:          0  MISS:          0
cpu0_ITLB TRANSLATION ACCESS:          0  HIT:          0  MISS:          0
cpu0_ITLB PREFETCH  REQUESTED:          0  ISSUED:          0  USEFUL:          0  USELESS:          0
cpu0_ITLB AVERAGE MISS LATENCY: -nan cycles
cpu0_STLB TOTAL     ACCESS:    6974285  HIT:    2510176  MISS:    4464109
cpu0_STLB LOAD      ACCESS:    6945646  HIT:    2481786  MISS:    4463860
cpu0_STLB RFO       ACCESS:      28639  HIT:      28390  MISS:        249
cpu0_STLB PREFETCH  ACCESS:          0  HIT:          0  MISS:          0
cpu0_STLB WRITEBACK ACCESS:          0  HIT:          0  MISS:          0
cpu0_STLB TRANSLATION ACCESS:          0  HIT:          0  MISS:          0
cpu0_STLB PREFETCH  REQUESTED:          0  ISSUED:          0  USEFUL:          0  USELESS:          0
cpu0_STLB AVERAGE MISS LATENCY: 30.0699 cycles
cpu0_L1D TOTAL     ACCESS:  578210235  HIT:  532020285  MISS:   46189950
cpu0_L1D LOAD      ACCESS:  209830008  HIT:  163764107  MISS:   46065901
cpu0_L1D RFO       ACCESS:  363993061  HIT:  363988141  MISS:       4920
cpu0_L1D PREFETCH  ACCESS:          0  HIT:          0  MISS:          0
cpu0_L1D WRITEBACK ACCESS:          0  HIT:          0  MISS:          0
cpu0_L1D TRANSLATION ACCESS:    4387166  HIT:    4268037  MISS:     119129
cpu0_L1D PREFETCH  REQUESTED:          0  ISSUED:          0  USEFUL:          0  USELESS:          0
cpu0_L1D AVERAGE MISS LATENCY: 367.73 cycles
cpu0_L2C TOTAL     ACCESS:   65743281  HIT:   20572725  MISS:   45170556
cpu0_L2C LOAD      ACCESS:   46062872  HIT:     960812  MISS:   45102060
cpu0_L2C RFO       ACCESS:       4916  HIT:       4214  MISS:        702
cpu0_L2C PREFETCH  ACCESS:          0  HIT:          0  MISS:          0
cpu0_L2C WRITEBACK ACCESS:   19556364  HIT:   19531749  MISS:      24615
cpu0_L2C TRANSLATION ACCESS:     119129  HIT:      75950  MISS:      43179
cpu0_L2C PREFETCH  REQUESTED:          0  ISSUED:          0  USEFUL:          0  USELESS:          0
cpu0_L2C AVERAGE MISS LATENCY: 364.645 cycles
LLC TOTAL     ACCESS:   63969301  HIT:   19402092  MISS:   44567209
LLC LOAD      ACCESS:   45101997  HIT:     569210  MISS:   44532787
LLC RFO       ACCESS:        702  HIT:        263  MISS:        439
LLC PREFETCH  ACCESS:          0  HIT:          0  MISS:          0
LLC WRITEBACK ACCESS:   18823423  HIT:   18807578  MISS:      15845
LLC TRANSLATION ACCESS:      43179  HIT:      25041  MISS:      18138
LLC PREFETCH  REQUESTED:          0  ISSUED:          0  USEFUL:          0  USELESS:          0
LLC AVERAGE MISS LATENCY: 348.309 cycles
~~~~~~~~~~Reuse Distance Profiler output~~~~~~~~~~
0	247744880	7220576
1	36768080	6733040
2	31713136	9257536
3	26444560	8933136
4	28553648	10004048
5	28200128	7463776
6	23762960	6707952
7	18371984	6434944
8	14337456	6064384
9	13952880	6707376
10	10935392	7128704
11	9287552	5901568
12	8664272	7395664
13	7380960	6051440
14	4985184	4298592
15	4391632	3756976
16	4837232	4080144
17	3577792	3021472
18	3722096	3090928
19	3572672	2204864
20	5067728	3084816
21	2948160	1681984
22	2129920	1201328
23	2237616	1106880
24	2498768	1362736
25	3129920	1403472
26	1647008	741776
27	1645200	591600
28	1642800	610048
29	1400432	580896
30	1295360	403424
31	1195072	277776
32	1649040	242304
33	971456	253984
34	1378688	266384
35	1343920	232080
36	1062480	214480
37	1088816	187808
38	1396288	203344
39	1339088	137600
40	1112464	96272
41	1195808	67952
42	1069664	68704
43	1016048	112576
44	823728	67712
45	810224	50752
46	892416	58192
47	817152	56576
48	802480	52464
49	887232	37248
50	783632	32384
51	669232	32688
52	606640	44544
53	571712	26768
54	724144	25152
55	615680	21120
56	676304	19328
57	654672	26800
58	532400	27584
59	572752	18096
60	574544	20848
61	459072	18720
62	398928	24608
63	280224	24528
64	520944	51072
66	479504	51904
68	504560	40800
70	720032	37728
72	648544	52208
74	623136	58352
76	630208	79568
78	704000	86448
80	729392	73808
82	699408	64656
84	1010576	63296
86	856688	57520
88	731600	59120
90	653488	81264
92	730848	76080
94	700400	59408
96	701616	53184
98	873744	57856
100	1052256	73984
102	748640	89792
104	746768	82672
106	684624	58000
108	732384	44624
110	918032	35616
112	872224	26928
114	929312	23184
116	967520	17120
118	1228288	15184
120	1264752	12928
122	1352848	11040
124	1451136	9520
126	1589888	7888
128	3401120	12576
132	3025088	11152
136	2175120	11984
140	1506272	12592
144	853792	14704
148	275104	16288
152	61968	20656
156	25104	24208
160	28576	28576
164	36928	36928
168	44608	44608
172	56704	56704
176	72912	72880
180	86896	86848
184	107984	107984
188	140480	140480
192	181344	181312
196	215616	215584
200	268880	268832
204	365344	365280
208	451392	451280
212	539456	539440
216	691232	691200
220	873552	873456
224	1052240	1052000
228	1344864	1344768
232	1666432	1666240
236	1894688	1894448
240	2124928	2124640
244	2410000	2409680
248	2591296	2590864
252	2617216	2616400
256	4570944	4569408
264	3259824	3257264
272	2644848	2641456
280	3025968	3019824
288	4186032	4174304
296	5952320	5920560
304	6744688	6693120
312	6359456	6267824
320	5294976	5196864
328	3925712	3809520
336	2877008	2696656
344	2582912	2336896
352	2857984	2539888
360	3139232	2952944
368	3531136	3386816
376	2799072	2651040
384	1847264	1683328
392	1599104	1486352
400	1353840	1291664
408	947984	928272
416	628640	619952
424	395984	392416
432	266048	263520
440	163104	161568
448	96608	95344
456	66672	65664
464	48864	48192
472	36384	35760
480	27056	26496
488	20944	20336
496	16608	16272
504	15824	15296
512	33440	32592
528	27840	27392
544	27136	26656
560	36112	35584
576	45632	45120
592	60672	60160
608	83968	83488
624	109312	108560
640	133456	133120
656	157760	157424
672	177792	177568
688	140944	140480
704	97696	97456
720	68512	68240
736	56192	55808
752	48976	48832
768	40048	39856
784	34480	34352
800	28096	27904
816	18416	18256
832	11872	11760
848	7280	7200
864	8688	8592
880	12416	12416
896	15856	15856
912	17136	17072
928	20752	20496
944	27632	27408
960	33168	32992
976	44896	44864
992	61280	61104
1008	74800	74672
1024	175232	175168
1056	172976	172848
1088	83808	83808
1120	52752	52752
1152	39104	38640
1184	30624	30272
1216	24240	24192
1248	26464	26304
1280	32320	32032
1312	47712	47648
1344	76960	76880
1376	95936	95744
1408	121584	121552
1440	95216	95120
1472	59296	59088
1504	31904	31856
1536	21808	21728
1568	20144	20080
1600	23728	23536
1632	24976	24960
1664	30784	30704
1696	44976	44960
1728	57280	57280
1760	70080	70064
1792	77520	77392
1824	58224	58192
1856	43584	43376
1888	26880	26848
1920	19808	19760
1952	21088	21056
1984	23280	23232
2016	31968	31712
2048	73824	73536
2112	95696	95584
2176	86528	86400
2240	52032	51856
2304	36592	36560
2368	49072	49024
2432	63360	63008
2496	79088	78928
2560	63472	63088
2624	40992	40592
2688	36496	36416
2752	44176	44016
2816	49536	49424
2880	52832	52800
2944	38736	38688
3008	30544	30528
3072	36496	36432
3136	37504	37376
3200	37536	37472
3264	40320	40304
3328	29280	29264
3392	25696	25664
3456	29408	29392
3520	28080	28080
3584	30816	30768
3648	30128	30128
3712	22704	22672
3776	20976	20976
3840	25760	25760
3904	23488	23472
3968	25872	25840
4032	23520	23520
4096	37968	37952
4224	40496	40496
4352	42336	42336
4480	32448	32448
4608	37616	37616
4736	39152	39136
4864	30224	30160
4992	33488	33424
5120	33504	33504
5248	27184	27168
5376	28976	28976
5504	29584	29584
5632	27024	26976
5760	30432	30288
5888	30848	30816
6016	23520	23456
6144	25984	25904
6272	22912	22896
6400	19312	19312
6528	22848	22848
6656	21616	21600
6784	18160	18144
6912	20592	20592
7040	17024	16992
7168	15472	15472
7296	17728	17728
7424	21760	21728
7552	18064	17840
7680	21856	21808
7808	18816	18592
7936	16096	15984
8064	17040	16992
8192	29040	29008
8448	27568	27568
8704	24768	24768
8960	24928	24928
9216	23232	23232
9472	23568	23568
9728	22160	22160
9984	19344	19344
10240	20256	20256
10496	20048	20048
10752	17632	17632
11008	19072	19072
11264	17808	17808
11520	17056	17056
11776	17136	17136
12032	15616	15616
12288	14144	14144
12544	13936	13936
12800	13280	13280
13056	13440	13440
13312	13088	13088
13568	11920	11920
13824	12832	12832
14080	12448	12448
14336	11744	11728
14592	12096	12096
14848	11392	11392
15104	10624	10624
15360	10672	10672
15616	10880	10880
15872	11296	11296
16128	12912	12864
16384	21616	21520
16896	19424	19392
17408	18000	18000
17920	16768	16768
18432	17344	17344
18944	15008	15008
19456	13872	13872
19968	14000	14000
20480	13792	13792
20992	12272	12272
21504	12480	12480
22016	11616	11616
22528	10912	10912
23040	11376	11376
23552	10736	10736
24064	10672	10672
24576	9280	9280
25088	9088	9088
25600	8368	8368
26112	9088	9088
26624	8208	8208
27136	8448	8448
27648	7904	7904
28160	8176	8176
28672	7520	7520
29184	8112	8112
29696	7504	7504
30208	7056	7056
30720	7104	7104
31232	6592	6592
31744	6608	6608
32256	7184	7184
32768	12336	12336
33792	11952	11952
34816	11952	11952
35840	11200	11200
36864	10848	10848
37888	10224	10224
38912	10368	10368
39936	9408	9408
40960	10080	10080
41984	9216	9216
43008	8080	8080
44032	6960	6960
45056	7664	7664
46080	7296	7296
47104	6736	6736
48128	6272	6272
49152	6608	6608
50176	6224	6224
51200	6128	6128
52224	6768	6768
53248	6480	6480
54272	5904	5904
55296	5792	5792
56320	5504	5504
57344	6208	6208
58368	5744	5744
59392	5136	5136
60416	5904	5904
61440	5616	5616
62464	5104	5104
63488	5536	5536
64512	5760	5760
65536	11536	11536
67584	11536	11536
69632	11632	11632
71680	10832	10832
73728	10656	10656
75776	10528	10528
77824	11152	11152
79872	10128	10128
81920	9872	9872
83968	8944	8944
86016	8672	8672
88064	10224	10224
90112	9072	9072
92160	8704	8704
94208	11264	11264
96256	36528	36528
98304	26736	26736
100352	33968	33968
102400	38160	38160
104448	38976	38976
106496	1426368	1426368
108544	2481584	2481584
110592	1482032	1482032
112640	867728	867728
114688	491136	491136
116736	470624	470624
118784	199520	199520
120832	183616	183616
122880	135376	135376
124928	76320	76320
126976	50416	50416
129024	85280	85280
131072	85408	85408
135168	107456	107456
139264	84928	84928
143360	70800	70800
147456	56016	56016
151552	56544	56544
155648	53456	53456
159744	52576	52576
163840	57456	57456
167936	55344	55344
172032	50320	50320
176128	50656	50656
180224	49184	49184
184320	47264	47264
188416	45776	45776
192512	46336	46336
196608	45648	45648
200704	46288	46288
204800	44144	44144
208896	42464	42464
212992	41584	41584
217088	44544	44544
221184	44160	44160
225280	42256	42256
229376	40816	40816
233472	41648	41648
237568	42592	42592
241664	44384	44384
245760	41456	41456
249856	40672	40672
253952	41056	41056
258048	38512	38512
262144	75728	75728
270336	72032	72032
278528	68544	68544
286720	72224	72224
294912	70560	70560
303104	71664	71664
311296	69040	69040
319488	71120	71120
327680	70096	70096
335872	68512	68512
344064	64160	64160
352256	62176	62176
360448	61376	61376
368640	59952	59952
376832	60816	60816
385024	60112	60112
393216	60128	60128
401408	59728	59728
409600	60400	60400
417792	60160	60160
425984	58288	58288
434176	57216	57216
442368	57136	57136
450560	58320	58320
458752	57296	57296
466944	58896	58896
475136	57248	57248
483328	55520	55520
491520	58736	58736
499712	56496	56496
507904	54352	54352
516096	55648	55648
524288	112048	112048
540672	111232	111232
557056	106832	106832
573440	105328	105328
589824	102576	102576
606208	101232	101232
622592	101184	101184
638976	100912	100912
655360	101792	101792
671744	100128	100128
688128	99664	99664
704512	101152	101152
720896	100000	100000
737280	101088	101088
753664	98208	98208
770048	99344	99344
786432	94208	94208
802816	96368	96368
819200	98048	98048
835584	92992	92992
851968	94768	94768
868352	92368	92368
884736	90016	90016
901120	89696	89696
917504	88464	88464
933888	86528	86528
950272	87648	87648
966656	86688	86688
983040	87280	87280
999424	86256	86256
1015808	87440	87440
1032192	88080	88080
1048576	171104	171104
1081344	175488	175488
1114112	173312	173312
1146880	174080	174080
1179648	173456	173456
1212416	176960	176960
1245184	181984	181984
1277952	189712	189712
1310720	183664	183664
1343488	185616	185616
1376256	186480	186480
1409024	194528	194528
1441792	205712	205712
1474560	212720	212720
1507328	206208	206208
1540096	256832	256832
1572864	241088	241088
1605632	229968	229968
1638400	239296	239296
1671168	308160	308160
1703936	274464	274464
1736704	303824	303824
1769472	282896	282896
1802240	266720	266720
1835008	266720	266720
1867776	315040	315040
1900544	265280	265280
1933312	261744	261744
1966080	233104	233104
1998848	215040	215040
2031616	239472	239472
2064384	199808	199808
2097152	413744	413744
2162688	374304	374304
2228224	374736	374736
2293760	358912	358912
2359296	305936	305936
2424832	363296	363296
2490368	356176	356176
2555904	324128	324128
2621440	404240	404240
2686976	274032	274032
2752512	308032	308032
2818048	252416	252416
2883584	261616	261616
2949120	244512	244512
3014656	191536	191536
3080192	201696	201696
3145728	172256	172256
3211264	175504	175504
3276800	181456	181456
3342336	182896	182896
3407872	201328	201328
3473408	260576	260576
3538944	225472	225472
3604480	266368	266368
3670016	267488	267488
3735552	279744	279744
3801088	272336	272336
3866624	244256	244256
3932160	244896	244896
3997696	187088	187088
4063232	123760	123760
4128768	67872	67872
4194304	73712	73712
4325376	32224	32224
4456448	28016	28016
4587520	32080	32080
4718592	26176	26176
4849664	24640	24640
4980736	23184	23184
5111808	26016	26016
5242880	24912	24912
5373952	26496	26496
5505024	26016	26016
5636096	27824	27824
5767168	26544	26544
5898240	24560	24560
6029312	28512	28512
6160384	24720	24720
6291456	24432	24432
6422528	25232	25232
6553600	22096	22096
6684672	21552	21552
6815744	23520	23520
6946816	21712	21712
7077888	23488	23488
7208960	24400	24400
7340032	22320	22320
7471104	24384	24384
7602176	22768	22768
7733248	26608	26608
7864320	26784	26784
7995392	22896	22896
8126464	22928	22928
8257536	22992	22992
8388608	44096	44096
8650752	43296	43296
8912896	43856	43856
9175040	52864	52864
9437184	42176	42176
9699328	45936	45936
9961472	44496	44496
10223616	47040	47040
10485760	46992	46992
10747904	44336	44336
11010048	40864	40864
11272192	44976	44976
11534336	41104	41104
11796480	42592	42592
12058624	45136	45136
12320768	46048	46048
12582912	41296	41296
12845056	39936	39936
13107200	41616	41616
13369344	43952	43952
13631488	45488	45488
13893632	45424	45424
14155776	43552	43552
14417920	43632	43632
14680064	43024	43024
14942208	42800	42800
15204352	41568	41568
15466496	42768	42768
15728640	48960	48960
15990784	54304	54304
16252928	60192	60192
16515072	48752	48752
16777216	104800	104800
17301504	79728	79728
17825792	89872	89872
18350080	86304	86304
18874368	86976	86976
19398656	90448	90448
19922944	94896	94896
20447232	84464	84464
20971520	76912	76912
21495808	91984	91984
22020096	96080	96080
22544384	81104	81104
23068672	84448	84448
23592960	101200	101200
24117248	98640	98640
24641536	95856	95856
25165824	92304	92304
25690112	108528	108528
26214400	91296	91296
26738688	113168	113168
27262976	86768	86768
27787264	97936	97936
28311552	113408	113408
28835840	111584	111584
29360128	148704	148704
29884416	180272	180272
30408704	231600	231600
30932992	208064	208064
31457280	293856	293856
31981568	341008	341008
32505856	326896	326896
33030144	305248	305248
33554432	716704	716704
34603008	628432	628432
35651584	379552	379552
36700160	276800	276800
37748736	96672	96672
38797312	46240	46240
39845888	35104	35104
40894464	37552	37552
41943040	40464	40464
42991616	39744	39744
44040192	42064	42064
45088768	37872	37872
46137344	35520	35520
47185920	39200	39200
48234496	35424	35424
49283072	36288	36288
50331648	42272	42272
51380224	38432	38432
52428800	38464	38464
53477376	37664	37664
54525952	38288	38288
55574528	37952	37952
56623104	46208	46208
57671680	75648	75648
58720256	113552	113552
59768832	95264	95264
60817408	127216	127216
61865984	102400	102400
62914560	132480	132480
63963136	202672	202672
65011712	169600	169600
66060288	110304	110304
67108864	362832	362832
69206016	357472	357472
71303168	159520	159520
73400320	49648	49648
75497472	43504	43504
77594624	41504	41504
79691776	41328	41328
81788928	38576	38576
83886080	41280	41280
85983232	46592	46592
88080384	86608	86608
90177536	136672	136672
92274688	130336	130336
94371840	132672	132672
96468992	166112	166112
98566144	145808	145808
100663296	164768	164768
102760448	209520	209520
104857600	125008	125008
106954752	53696	53696
109051904	30272	30272
111149056	29616	29616
113246208	26640	26640
115343360	28816	28816
117440512	31248	31248
119537664	46720	46720
121634816	89136	89136
123731968	79760	79760
125829120	91024	91024
127926272	101472	101472
130023424	104544	104544
132120576	81920	81920
134217728	218592	218592
138412032	126368	126368
142606336	43312	43312
146800640	47568	47568
150994944	93552	93552
155189248	103520	103520
159383552	141232	141232
163577856	177760	177760
167772160	135968	135968
171966464	61840	61840
176160768	46768	46768
180355072	56704	56704
184549376	73760	73760
188743680	50016	50016
192937984	131792	131792
197132288	178176	178176
201326592	68768	68768
205520896	36224	36224
209715200	29408	29408
213909504	54304	54304
218103808	48816	48816
222298112	60720	60720
226492416	98592	98592
230686720	140656	140656
234881024	47200	47200
239075328	23920	23920
243269632	20928	20928
247463936	43072	43072
251658240	54352	54352
255852544	67232	67232
260046848	55456	55456
264241152	106688	106688
268435456	50880	50880
276824064	48400	48400
285212672	141152	141152
293601280	96976	96976
301989888	46352	46352
310378496	38688	38688
318767104	157680	157680
327155712	56928	56928
335544320	46144	46144
343932928	34208	34208
352321536	124288	124288
360710144	36064	36064
369098752	29152	29152
377487360	39536	39536
385875968	95488	95488
394264576	33168	33168
402653184	21920	21920
411041792	34880	34880
419430400	75664	75664
427819008	30160	30160
436207616	13152	13152
444596224	32944	32944
452984832	62912	62912
461373440	25040	25040
469762048	10864	10864
478150656	31520	31520
486539264	50656	50656
494927872	14688	14688
503316480	9632	9632
511705088	28752	28752
520093696	47200	47200
528482304	9696	9696
536870912	26608	26608
553648128	45024	45024
570425344	20560	20560
587202560	36944	36944
603979776	9232	9232
620756992	34192	34192
637534208	6960	6960
654311424	28704	28704
671088640	5008	5008
687865856	17840	17840
704643072	2960	2960
721420288	9632	9632
738197504	1472	1472
754974720	3360	3360
771751936	160	160
788529152	0	0
805306368	0	0
822083584	0	0
838860800	0	0
855638016	0	0
872415232	0	0
889192448	0	0
905969664	0	0
922746880	0	0
939524096	0	0
956301312	0	0
973078528	0	0
989855744	0	0
1006632960	0	0
1023410176	0	0
1040187392	0	0
1056964608	0	0
1073741824	0	0
1107296256	0	0
1140850688	0	0
1174405120	0	0
1207959552	0	0
1241513984	0	0
1275068416	0	0
1308622848	0	0
1342177280	0	0
1375731712	0	0
1409286144	0	0
1442840576	0	0
1476395008	0	0
1509949440	0	0
1543503872	0	0
1577058304	0	0
1610612736	0	0
1644167168	0	0
1677721600	0	0
1711276032	0	0
1744830464	0	0
1778384896	0	0
1811939328	0	0
1845493760	0	0
1879048192	0	0
1912602624	0	0
1946157056	0	0
1979711488	0	0
2013265920	0	0
2046820352	0	0
2080374784	0	0
2113929216	0	0
2147483648	0	0
2214592512	0	0
2281701376	0	0
2348810240	0	0
2415919104	0	0
2483027968	0	0
2550136832	0	0
2617245696	0	0
2684354560	0	0
2751463424	0	0
2818572288	0	0
2885681152	0	0
2952790016	0	0
3019898880	0	0
3087007744	0	0
3154116608	0	0
3221225472	0	0
3288334336	0	0
3355443200	0	0
3422552064	0	0
3489660928	0	0
3556769792	0	0
3623878656	0	0
3690987520	0	0
3758096384	0	0
3825205248	0	0
3892314112	0	0
3959422976	0	0
4026531840	0	0
4093640704	0	0
4160749568	0	0
4227858432	0	0
~~~~~~~~~~Reuse Distance Profiler output end~~~~~~~~~~

DRAM Statistics
 CHANNEL 0
 RQ ROW_BUFFER_HIT:     366736  ROW_BUFFER_MISS:   44183284
 DBUS AVG_CONGESTED_CYCLE:    3.95493
 WQ ROW_BUFFER_HIT:     262723  ROW_BUFFER_MISS:   18219620  FULL:          0


CPU 0 Branch Prediction Accuracy: 95.8639% MPKI: 3.76567 Average ROB Occupancy at Mispredict: 115.894
Branch type MPKI
BRANCH_DIRECT_JUMP: 0
BRANCH_INDIRECT: 0
BRANCH_CONDITIONAL: 3.76567
BRANCH_DIRECT_CALL: 0
BRANCH_INDIRECT_CALL: 0
BRANCH_RETURN: 0

