
*** ChampSim Multicore Out-of-Order Simulator ***

Warmup Instructions: 500000000
Simulation Instructions: 1500000000
Number of CPUs: 1
Off-chip DRAM Size: 4 GiB Channels: 1 Width: 64-bit Data Rate: 3200 MT/s

VirtualMemory physical capacity: 8588881920 num_ppages: 2096895
VirtualMemory page size: 4096 log2_page_size: 12

CPU 0 runs traces/433.milc-337B.champsimtrace.xz
CPU 0 Bimodal branch predictor
Basic BTB sets: 1024 ways: 8 indirect buffer size: 4096 RAS size: 64
Initializing LRU.
Initializing LRU.
Initializing LRU.
Initializing LRU.
Initializing rdLRU.
Initializing LRU.
Initializing LRU.
Heartbeat CPU 0 instructions: 10000003 cycles: 2500078 heartbeat IPC: 3.99988 cumulative IPC: 3.99988 (Simulation time: 0 hr 0 min 38 sec) 
Heartbeat CPU 0 instructions: 20000003 cycles: 5000078 heartbeat IPC: 4 cumulative IPC: 3.99994 (Simulation time: 0 hr 1 min 9 sec) 
Heartbeat CPU 0 instructions: 30000003 cycles: 7500078 heartbeat IPC: 4 cumulative IPC: 3.99996 (Simulation time: 0 hr 1 min 47 sec) 
Heartbeat CPU 0 instructions: 40000003 cycles: 10000078 heartbeat IPC: 4 cumulative IPC: 3.99997 (Simulation time: 0 hr 2 min 29 sec) 
Heartbeat CPU 0 instructions: 50000003 cycles: 12500078 heartbeat IPC: 4 cumulative IPC: 3.99998 (Simulation time: 0 hr 3 min 1 sec) 
Heartbeat CPU 0 instructions: 60000002 cycles: 15359982 heartbeat IPC: 3.49662 cumulative IPC: 3.90625 (Simulation time: 0 hr 3 min 39 sec) 
Heartbeat CPU 0 instructions: 70000002 cycles: 17859982 heartbeat IPC: 4 cumulative IPC: 3.91938 (Simulation time: 0 hr 4 min 10 sec) 
Heartbeat CPU 0 instructions: 80000002 cycles: 20359982 heartbeat IPC: 4 cumulative IPC: 3.92928 (Simulation time: 0 hr 4 min 41 sec) 
Heartbeat CPU 0 instructions: 90000002 cycles: 22859982 heartbeat IPC: 4 cumulative IPC: 3.93701 (Simulation time: 0 hr 5 min 12 sec) 
Heartbeat CPU 0 instructions: 100000002 cycles: 25359982 heartbeat IPC: 4 cumulative IPC: 3.94322 (Simulation time: 0 hr 5 min 44 sec) 
Heartbeat CPU 0 instructions: 110000002 cycles: 27859982 heartbeat IPC: 4 cumulative IPC: 3.94832 (Simulation time: 0 hr 6 min 15 sec) 
Heartbeat CPU 0 instructions: 120000002 cycles: 30359982 heartbeat IPC: 4 cumulative IPC: 3.95257 (Simulation time: 0 hr 6 min 46 sec) 
Heartbeat CPU 0 instructions: 130000002 cycles: 33059889 heartbeat IPC: 3.70383 cumulative IPC: 3.93226 (Simulation time: 0 hr 7 min 20 sec) 
Heartbeat CPU 0 instructions: 140000002 cycles: 35559889 heartbeat IPC: 4 cumulative IPC: 3.93702 (Simulation time: 0 hr 7 min 51 sec) 
Heartbeat CPU 0 instructions: 150000002 cycles: 38059889 heartbeat IPC: 4 cumulative IPC: 3.94116 (Simulation time: 0 hr 8 min 23 sec) 
Heartbeat CPU 0 instructions: 160000002 cycles: 40559889 heartbeat IPC: 4 cumulative IPC: 3.94478 (Simulation time: 0 hr 8 min 54 sec) 
Heartbeat CPU 0 instructions: 170000002 cycles: 43059889 heartbeat IPC: 4 cumulative IPC: 3.94799 (Simulation time: 0 hr 9 min 25 sec) 
Heartbeat CPU 0 instructions: 180000002 cycles: 45559889 heartbeat IPC: 4 cumulative IPC: 3.95084 (Simulation time: 0 hr 9 min 55 sec) 
Heartbeat CPU 0 instructions: 190000002 cycles: 48059889 heartbeat IPC: 4 cumulative IPC: 3.9534 (Simulation time: 0 hr 10 min 27 sec) 
Heartbeat CPU 0 instructions: 200000002 cycles: 50559889 heartbeat IPC: 4 cumulative IPC: 3.9557 (Simulation time: 0 hr 10 min 58 sec) 
Heartbeat CPU 0 instructions: 210000002 cycles: 53059889 heartbeat IPC: 4 cumulative IPC: 3.95779 (Simulation time: 0 hr 11 min 31 sec) 
Heartbeat CPU 0 instructions: 220000002 cycles: 55559889 heartbeat IPC: 4 cumulative IPC: 3.95969 (Simulation time: 0 hr 12 min 6 sec) 
Heartbeat CPU 0 instructions: 230000002 cycles: 58059889 heartbeat IPC: 4 cumulative IPC: 3.96143 (Simulation time: 0 hr 12 min 39 sec) 
Heartbeat CPU 0 instructions: 240000003 cycles: 60746951 heartbeat IPC: 3.72154 cumulative IPC: 3.95082 (Simulation time: 0 hr 13 min 26 sec) 
Heartbeat CPU 0 instructions: 250000001 cycles: 63801656 heartbeat IPC: 3.27364 cumulative IPC: 3.91839 (Simulation time: 0 hr 14 min 37 sec) 
Heartbeat CPU 0 instructions: 260000001 cycles: 66301656 heartbeat IPC: 4 cumulative IPC: 3.92147 (Simulation time: 0 hr 15 min 8 sec) 
Heartbeat CPU 0 instructions: 270000001 cycles: 68801656 heartbeat IPC: 4 cumulative IPC: 3.92432 (Simulation time: 0 hr 15 min 40 sec) 
Heartbeat CPU 0 instructions: 280000001 cycles: 71301656 heartbeat IPC: 4 cumulative IPC: 3.92698 (Simulation time: 0 hr 16 min 13 sec) 
Heartbeat CPU 0 instructions: 290000001 cycles: 73801656 heartbeat IPC: 4 cumulative IPC: 3.92945 (Simulation time: 0 hr 16 min 45 sec) 
Heartbeat CPU 0 instructions: 300000001 cycles: 76301656 heartbeat IPC: 4 cumulative IPC: 3.93176 (Simulation time: 0 hr 17 min 36 sec) 
Heartbeat CPU 0 instructions: 310000001 cycles: 78801656 heartbeat IPC: 4 cumulative IPC: 3.93393 (Simulation time: 0 hr 18 min 33 sec) 
Heartbeat CPU 0 instructions: 320000001 cycles: 81301656 heartbeat IPC: 4 cumulative IPC: 3.93596 (Simulation time: 0 hr 19 min 29 sec) 
Heartbeat CPU 0 instructions: 330000002 cycles: 84001559 heartbeat IPC: 3.70384 cumulative IPC: 3.9285 (Simulation time: 0 hr 20 min 32 sec) 
Heartbeat CPU 0 instructions: 340000002 cycles: 86501559 heartbeat IPC: 4 cumulative IPC: 3.93057 (Simulation time: 0 hr 21 min 19 sec) 
Heartbeat CPU 0 instructions: 350000002 cycles: 89001559 heartbeat IPC: 4 cumulative IPC: 3.93252 (Simulation time: 0 hr 21 min 53 sec) 
Heartbeat CPU 0 instructions: 360000002 cycles: 91501559 heartbeat IPC: 4 cumulative IPC: 3.93436 (Simulation time: 0 hr 22 min 25 sec) 
Heartbeat CPU 0 instructions: 370000002 cycles: 94001559 heartbeat IPC: 4 cumulative IPC: 3.93611 (Simulation time: 0 hr 22 min 57 sec) 
Heartbeat CPU 0 instructions: 380000002 cycles: 96501559 heartbeat IPC: 4 cumulative IPC: 3.93776 (Simulation time: 0 hr 23 min 29 sec) 
Heartbeat CPU 0 instructions: 390000002 cycles: 99001559 heartbeat IPC: 4 cumulative IPC: 3.93933 (Simulation time: 0 hr 24 min 2 sec) 
Heartbeat CPU 0 instructions: 400000002 cycles: 101501559 heartbeat IPC: 4 cumulative IPC: 3.94083 (Simulation time: 0 hr 24 min 35 sec) 
Heartbeat CPU 0 instructions: 410000002 cycles: 104001559 heartbeat IPC: 4 cumulative IPC: 3.94225 (Simulation time: 0 hr 25 min 6 sec) 
Heartbeat CPU 0 instructions: 420000002 cycles: 106501559 heartbeat IPC: 4 cumulative IPC: 3.9436 (Simulation time: 0 hr 25 min 38 sec) 
Heartbeat CPU 0 instructions: 430000002 cycles: 109001559 heartbeat IPC: 4 cumulative IPC: 3.9449 (Simulation time: 0 hr 26 min 15 sec) 
Heartbeat CPU 0 instructions: 440000002 cycles: 111501559 heartbeat IPC: 4 cumulative IPC: 3.94613 (Simulation time: 0 hr 26 min 47 sec) 
Heartbeat CPU 0 instructions: 450000002 cycles: 114001559 heartbeat IPC: 4 cumulative IPC: 3.94731 (Simulation time: 0 hr 27 min 22 sec) 
Heartbeat CPU 0 instructions: 460000002 cycles: 116501559 heartbeat IPC: 4 cumulative IPC: 3.94845 (Simulation time: 0 hr 27 min 54 sec) 
Heartbeat CPU 0 instructions: 470000000 cycles: 119203133 heartbeat IPC: 3.70155 cumulative IPC: 3.94285 (Simulation time: 0 hr 28 min 30 sec) 
Heartbeat CPU 0 instructions: 480000004 cycles: 121708728 heartbeat IPC: 3.99107 cumulative IPC: 3.94384 (Simulation time: 0 hr 29 min 6 sec) 
Heartbeat CPU 0 instructions: 490000004 cycles: 124214315 heartbeat IPC: 3.99108 cumulative IPC: 3.94479 (Simulation time: 0 hr 29 min 43 sec) 
Heartbeat CPU 0 instructions: 500000000 cycles: 126719907 heartbeat IPC: 3.99107 cumulative IPC: 3.94571 (Simulation time: 0 hr 30 min 19 sec) 

Warmup complete CPU 0 instructions: 500000005 cycles: 126719908 (Simulation time: 0 hr 30 min 19 sec) 

Heartbeat CPU 0 instructions: 510000002 cycles: 140735145 heartbeat IPC: 0.713509 cumulative IPC: 0.713509 (Simulation time: 0 hr 31 min 33 sec) 
Heartbeat CPU 0 instructions: 520000003 cycles: 154736845 heartbeat IPC: 0.714199 cumulative IPC: 0.713854 (Simulation time: 0 hr 32 min 51 sec) 
Heartbeat CPU 0 instructions: 530000000 cycles: 168736621 heartbeat IPC: 0.714297 cumulative IPC: 0.714001 (Simulation time: 0 hr 34 min 26 sec) 
Heartbeat CPU 0 instructions: 540000002 cycles: 182295820 heartbeat IPC: 0.737507 cumulative IPC: 0.719736 (Simulation time: 0 hr 35 min 44 sec) 
Heartbeat CPU 0 instructions: 550000001 cycles: 249693860 heartbeat IPC: 0.148372 cumulative IPC: 0.40659 (Simulation time: 0 hr 38 min 37 sec) 
Heartbeat CPU 0 instructions: 560000003 cycles: 322800849 heartbeat IPC: 0.136786 cumulative IPC: 0.305996 (Simulation time: 0 hr 41 min 58 sec) 
Heartbeat CPU 0 instructions: 570000003 cycles: 339062157 heartbeat IPC: 0.614957 cumulative IPC: 0.329656 (Simulation time: 0 hr 43 min 6 sec) 
Heartbeat CPU 0 instructions: 580000003 cycles: 355309305 heartbeat IPC: 0.615493 cumulative IPC: 0.349972 (Simulation time: 0 hr 44 min 14 sec) 
Heartbeat CPU 0 instructions: 590000003 cycles: 371554056 heartbeat IPC: 0.615583 cumulative IPC: 0.367596 (Simulation time: 0 hr 45 min 23 sec) 
Heartbeat CPU 0 instructions: 600000002 cycles: 386216302 heartbeat IPC: 0.682024 cumulative IPC: 0.385362 (Simulation time: 0 hr 46 min 36 sec) 
Heartbeat CPU 0 instructions: 610000001 cycles: 400411057 heartbeat IPC: 0.704485 cumulative IPC: 0.401913 (Simulation time: 0 hr 47 min 46 sec) 
Heartbeat CPU 0 instructions: 620000001 cycles: 414753106 heartbeat IPC: 0.69725 cumulative IPC: 0.416619 (Simulation time: 0 hr 48 min 58 sec) 
Heartbeat CPU 0 instructions: 630000002 cycles: 429084808 heartbeat IPC: 0.697754 cumulative IPC: 0.429944 (Simulation time: 0 hr 50 min 10 sec) 
Heartbeat CPU 0 instructions: 640000000 cycles: 443443403 heartbeat IPC: 0.696447 cumulative IPC: 0.442026 (Simulation time: 0 hr 52 min 16 sec) 
Heartbeat CPU 0 instructions: 650000000 cycles: 457784867 heartbeat IPC: 0.697279 cumulative IPC: 0.453083 (Simulation time: 0 hr 54 min 16 sec) 
Heartbeat CPU 0 instructions: 660000004 cycles: 472129105 heartbeat IPC: 0.697144 cumulative IPC: 0.463219 (Simulation time: 0 hr 56 min 9 sec) 
Heartbeat CPU 0 instructions: 670000001 cycles: 486864811 heartbeat IPC: 0.678624 cumulative IPC: 0.472032 (Simulation time: 0 hr 58 min 12 sec) 
Heartbeat CPU 0 instructions: 680000003 cycles: 545560459 heartbeat IPC: 0.17037 cumulative IPC: 0.429758 (Simulation time: 1 hr 1 min 19 sec) 
Heartbeat CPU 0 instructions: 690000000 cycles: 561140266 heartbeat IPC: 0.641856 cumulative IPC: 0.437364 (Simulation time: 1 hr 3 min 9 sec) 
Heartbeat CPU 0 instructions: 700000003 cycles: 575877857 heartbeat IPC: 0.678537 cumulative IPC: 0.445278 (Simulation time: 1 hr 4 min 25 sec) 
Heartbeat CPU 0 instructions: 710000002 cycles: 590638309 heartbeat IPC: 0.677486 cumulative IPC: 0.452666 (Simulation time: 1 hr 5 min 41 sec) 
Heartbeat CPU 0 instructions: 720000003 cycles: 605383737 heartbeat IPC: 0.678176 cumulative IPC: 0.459613 (Simulation time: 1 hr 7 min 1 sec) 
Heartbeat CPU 0 instructions: 730000004 cycles: 620133958 heartbeat IPC: 0.677956 cumulative IPC: 0.46614 (Simulation time: 1 hr 8 min 47 sec) 
Heartbeat CPU 0 instructions: 740000002 cycles: 634882113 heartbeat IPC: 0.678051 cumulative IPC: 0.47229 (Simulation time: 1 hr 10 min 7 sec) 
Heartbeat CPU 0 instructions: 750000000 cycles: 649624054 heartbeat IPC: 0.678337 cumulative IPC: 0.478099 (Simulation time: 1 hr 11 min 24 sec) 
Heartbeat CPU 0 instructions: 760000004 cycles: 661888506 heartbeat IPC: 0.815365 cumulative IPC: 0.485828 (Simulation time: 1 hr 12 min 33 sec) 
Heartbeat CPU 0 instructions: 770000002 cycles: 673534924 heartbeat IPC: 0.858633 cumulative IPC: 0.493768 (Simulation time: 1 hr 13 min 42 sec) 
Heartbeat CPU 0 instructions: 780000004 cycles: 685234903 heartbeat IPC: 0.854703 cumulative IPC: 0.501329 (Simulation time: 1 hr 15 min 0 sec) 
Heartbeat CPU 0 instructions: 790000004 cycles: 696925178 heartbeat IPC: 0.855412 cumulative IPC: 0.508589 (Simulation time: 1 hr 15 min 59 sec) 
Heartbeat CPU 0 instructions: 800000004 cycles: 708639201 heartbeat IPC: 0.853678 cumulative IPC: 0.515535 (Simulation time: 1 hr 17 min 0 sec) 
Heartbeat CPU 0 instructions: 810000001 cycles: 720345919 heartbeat IPC: 0.85421 cumulative IPC: 0.522214 (Simulation time: 1 hr 18 min 4 sec) 
Heartbeat CPU 0 instructions: 820000002 cycles: 732056658 heartbeat IPC: 0.853917 cumulative IPC: 0.528631 (Simulation time: 1 hr 19 min 4 sec) 
Heartbeat CPU 0 instructions: 830000003 cycles: 745241911 heartbeat IPC: 0.758423 cumulative IPC: 0.53353 (Simulation time: 1 hr 20 min 21 sec) 
Heartbeat CPU 0 instructions: 840000001 cycles: 760289071 heartbeat IPC: 0.664577 cumulative IPC: 0.536642 (Simulation time: 1 hr 21 min 34 sec) 
Heartbeat CPU 0 instructions: 850000004 cycles: 774471995 heartbeat IPC: 0.705073 cumulative IPC: 0.54033 (Simulation time: 1 hr 22 min 45 sec) 
Heartbeat CPU 0 instructions: 860000001 cycles: 788653678 heartbeat IPC: 0.705135 cumulative IPC: 0.543861 (Simulation time: 1 hr 23 min 55 sec) 
Heartbeat CPU 0 instructions: 870000001 cycles: 802839015 heartbeat IPC: 0.704953 cumulative IPC: 0.547241 (Simulation time: 1 hr 25 min 7 sec) 
Heartbeat CPU 0 instructions: 880000004 cycles: 817001082 heartbeat IPC: 0.706112 cumulative IPC: 0.5505 (Simulation time: 1 hr 26 min 18 sec) 
Heartbeat CPU 0 instructions: 890000001 cycles: 831168323 heartbeat IPC: 0.705854 cumulative IPC: 0.553625 (Simulation time: 1 hr 27 min 29 sec) 
Heartbeat CPU 0 instructions: 900000000 cycles: 845345022 heartbeat IPC: 0.705383 cumulative IPC: 0.556618 (Simulation time: 1 hr 28 min 48 sec) 
Heartbeat CPU 0 instructions: 910000001 cycles: 861600122 heartbeat IPC: 0.615192 cumulative IPC: 0.557914 (Simulation time: 1 hr 30 min 8 sec) 
Heartbeat CPU 0 instructions: 920000001 cycles: 877848255 heartbeat IPC: 0.615455 cumulative IPC: 0.559159 (Simulation time: 1 hr 32 min 12 sec) 
Heartbeat CPU 0 instructions: 930000001 cycles: 894093156 heartbeat IPC: 0.615578 cumulative IPC: 0.560353 (Simulation time: 1 hr 34 min 17 sec) 
Heartbeat CPU 0 instructions: 940000000 cycles: 922619079 heartbeat IPC: 0.350558 cumulative IPC: 0.552834 (Simulation time: 1 hr 35 min 43 sec) 
Heartbeat CPU 0 instructions: 950000003 cycles: 981864293 heartbeat IPC: 0.16879 cumulative IPC: 0.526227 (Simulation time: 1 hr 38 min 55 sec) 
Heartbeat CPU 0 instructions: 960000002 cycles: 995992568 heartbeat IPC: 0.7078 cumulative IPC: 0.529178 (Simulation time: 1 hr 40 min 12 sec) 
Heartbeat CPU 0 instructions: 970000002 cycles: 1010564806 heartbeat IPC: 0.686236 cumulative IPC: 0.531767 (Simulation time: 1 hr 41 min 29 sec) 
Heartbeat CPU 0 instructions: 980000001 cycles: 1025132967 heartbeat IPC: 0.686428 cumulative IPC: 0.534275 (Simulation time: 1 hr 42 min 48 sec) 
Heartbeat CPU 0 instructions: 990000003 cycles: 1039709560 heartbeat IPC: 0.686032 cumulative IPC: 0.536698 (Simulation time: 1 hr 44 min 0 sec) 
Heartbeat CPU 0 instructions: 1000000002 cycles: 1054265759 heartbeat IPC: 0.686992 cumulative IPC: 0.539057 (Simulation time: 1 hr 45 min 12 sec) 
Heartbeat CPU 0 instructions: 1010000002 cycles: 1068835711 heartbeat IPC: 0.686344 cumulative IPC: 0.541335 (Simulation time: 1 hr 46 min 26 sec) 
Heartbeat CPU 0 instructions: 1020000002 cycles: 1083415287 heartbeat IPC: 0.685891 cumulative IPC: 0.543538 (Simulation time: 1 hr 47 min 38 sec) 
Heartbeat CPU 0 instructions: 1030000001 cycles: 1099188638 heartbeat IPC: 0.633981 cumulative IPC: 0.545005 (Simulation time: 1 hr 50 min 16 sec) 
Heartbeat CPU 0 instructions: 1040000001 cycles: 1114496604 heartbeat IPC: 0.653255 cumulative IPC: 0.546682 (Simulation time: 1 hr 52 min 43 sec) 
Heartbeat CPU 0 instructions: 1050000001 cycles: 1129600554 heartbeat IPC: 0.662078 cumulative IPC: 0.54842 (Simulation time: 1 hr 54 min 22 sec) 
Heartbeat CPU 0 instructions: 1060000001 cycles: 1144722880 heartbeat IPC: 0.661274 cumulative IPC: 0.550097 (Simulation time: 1 hr 55 min 56 sec) 
Heartbeat CPU 0 instructions: 1070000000 cycles: 1159849450 heartbeat IPC: 0.661088 cumulative IPC: 0.551722 (Simulation time: 1 hr 57 min 16 sec) 
Heartbeat CPU 0 instructions: 1080000004 cycles: 1174980975 heartbeat IPC: 0.660872 cumulative IPC: 0.553297 (Simulation time: 1 hr 58 min 33 sec) 
Heartbeat CPU 0 instructions: 1090000002 cycles: 1190114025 heartbeat IPC: 0.660805 cumulative IPC: 0.554827 (Simulation time: 1 hr 59 min 50 sec) 
Heartbeat CPU 0 instructions: 1100000004 cycles: 1203438618 heartbeat IPC: 0.750492 cumulative IPC: 0.557249 (Simulation time: 2 hr 1 min 3 sec) 
Heartbeat CPU 0 instructions: 1110000001 cycles: 1213935040 heartbeat IPC: 0.952705 cumulative IPC: 0.561067 (Simulation time: 2 hr 2 min 9 sec) 
Heartbeat CPU 0 instructions: 1120000000 cycles: 1225032326 heartbeat IPC: 0.901121 cumulative IPC: 0.564502 (Simulation time: 2 hr 3 min 18 sec) 
Heartbeat CPU 0 instructions: 1130000002 cycles: 1236131854 heartbeat IPC: 0.900939 cumulative IPC: 0.567868 (Simulation time: 2 hr 4 min 40 sec) 
Heartbeat CPU 0 instructions: 1140000004 cycles: 1247214318 heartbeat IPC: 0.902327 cumulative IPC: 0.571176 (Simulation time: 2 hr 5 min 47 sec) 
Heartbeat CPU 0 instructions: 1150000003 cycles: 1258311492 heartbeat IPC: 0.90113 cumulative IPC: 0.574412 (Simulation time: 2 hr 6 min 55 sec) 
Heartbeat CPU 0 instructions: 1160000000 cycles: 1269401215 heartbeat IPC: 0.901735 cumulative IPC: 0.577589 (Simulation time: 2 hr 8 min 2 sec) 
Heartbeat CPU 0 instructions: 1170000003 cycles: 1281357235 heartbeat IPC: 0.836399 cumulative IPC: 0.580269 (Simulation time: 2 hr 9 min 21 sec) 
Heartbeat CPU 0 instructions: 1180000004 cycles: 1296549957 heartbeat IPC: 0.65821 cumulative IPC: 0.581281 (Simulation time: 2 hr 10 min 39 sec) 
Heartbeat CPU 0 instructions: 1190000004 cycles: 1310744185 heartbeat IPC: 0.704512 cumulative IPC: 0.582758 (Simulation time: 2 hr 12 min 12 sec) 
Heartbeat CPU 0 instructions: 1200000000 cycles: 1324932443 heartbeat IPC: 0.704808 cumulative IPC: 0.584204 (Simulation time: 2 hr 13 min 28 sec) 
Heartbeat CPU 0 instructions: 1210000003 cycles: 1339102342 heartbeat IPC: 0.705722 cumulative IPC: 0.585624 (Simulation time: 2 hr 14 min 41 sec) 
Heartbeat CPU 0 instructions: 1220000003 cycles: 1353284217 heartbeat IPC: 0.705125 cumulative IPC: 0.587005 (Simulation time: 2 hr 15 min 56 sec) 
Heartbeat CPU 0 instructions: 1230000002 cycles: 1367454197 heartbeat IPC: 0.705717 cumulative IPC: 0.588361 (Simulation time: 2 hr 17 min 11 sec) 
Heartbeat CPU 0 instructions: 1240000003 cycles: 1381649895 heartbeat IPC: 0.704439 cumulative IPC: 0.589674 (Simulation time: 2 hr 18 min 27 sec) 
Heartbeat CPU 0 instructions: 1250000000 cycles: 1431715433 heartbeat IPC: 0.199738 cumulative IPC: 0.574715 (Simulation time: 2 hr 20 min 32 sec) 
Heartbeat CPU 0 instructions: 1260000003 cycles: 1514614663 heartbeat IPC: 0.120628 cumulative IPC: 0.547592 (Simulation time: 2 hr 23 min 15 sec) 
Heartbeat CPU 0 instructions: 1270000000 cycles: 1537772710 heartbeat IPC: 0.431815 cumulative IPC: 0.545692 (Simulation time: 2 hr 24 min 31 sec) 
Heartbeat CPU 0 instructions: 1280000000 cycles: 1554019962 heartbeat IPC: 0.615489 cumulative IPC: 0.546486 (Simulation time: 2 hr 25 min 37 sec) 
Heartbeat CPU 0 instructions: 1290000000 cycles: 1570265003 heartbeat IPC: 0.615572 cumulative IPC: 0.547264 (Simulation time: 2 hr 26 min 44 sec) 
Heartbeat CPU 0 instructions: 1300000003 cycles: 1585674435 heartbeat IPC: 0.648953 cumulative IPC: 0.548338 (Simulation time: 2 hr 28 min 0 sec) 
Heartbeat CPU 0 instructions: 1310000001 cycles: 1599858222 heartbeat IPC: 0.70503 cumulative IPC: 0.549847 (Simulation time: 2 hr 29 min 20 sec) 
Heartbeat CPU 0 instructions: 1320000003 cycles: 1614423599 heartbeat IPC: 0.68656 cumulative IPC: 0.551185 (Simulation time: 2 hr 30 min 31 sec) 
Heartbeat CPU 0 instructions: 1330000000 cycles: 1628968421 heartbeat IPC: 0.68753 cumulative IPC: 0.552505 (Simulation time: 2 hr 31 min 46 sec) 
Heartbeat CPU 0 instructions: 1340000002 cycles: 1643524159 heartbeat IPC: 0.687014 cumulative IPC: 0.553796 (Simulation time: 2 hr 32 min 59 sec) 
Heartbeat CPU 0 instructions: 1350000004 cycles: 1658065951 heartbeat IPC: 0.687673 cumulative IPC: 0.555067 (Simulation time: 2 hr 34 min 8 sec) 
Heartbeat CPU 0 instructions: 1360000004 cycles: 1672598432 heartbeat IPC: 0.688114 cumulative IPC: 0.556318 (Simulation time: 2 hr 35 min 18 sec) 
Heartbeat CPU 0 instructions: 1370000003 cycles: 1687140410 heartbeat IPC: 0.687664 cumulative IPC: 0.557542 (Simulation time: 2 hr 36 min 29 sec) 
Heartbeat CPU 0 instructions: 1380000000 cycles: 1742253788 heartbeat IPC: 0.181444 cumulative IPC: 0.544712 (Simulation time: 2 hr 38 min 42 sec) 
Heartbeat CPU 0 instructions: 1390000001 cycles: 1770205192 heartbeat IPC: 0.357764 cumulative IPC: 0.541532 (Simulation time: 2 hr 40 min 22 sec) 
Heartbeat CPU 0 instructions: 1400000004 cycles: 1785027691 heartbeat IPC: 0.67465 cumulative IPC: 0.542722 (Simulation time: 2 hr 41 min 38 sec) 
Heartbeat CPU 0 instructions: 1410000002 cycles: 1799769511 heartbeat IPC: 0.678342 cumulative IPC: 0.543917 (Simulation time: 2 hr 42 min 54 sec) 
Heartbeat CPU 0 instructions: 1420000004 cycles: 1814523669 heartbeat IPC: 0.677775 cumulative IPC: 0.545087 (Simulation time: 2 hr 44 min 9 sec) 
Heartbeat CPU 0 instructions: 1430000002 cycles: 1829268238 heartbeat IPC: 0.678216 cumulative IPC: 0.54624 (Simulation time: 2 hr 45 min 25 sec) 
Heartbeat CPU 0 instructions: 1440000003 cycles: 1844016997 heartbeat IPC: 0.678023 cumulative IPC: 0.547372 (Simulation time: 2 hr 46 min 41 sec) 
Heartbeat CPU 0 instructions: 1450000000 cycles: 1858762722 heartbeat IPC: 0.678162 cumulative IPC: 0.548485 (Simulation time: 2 hr 47 min 56 sec) 
Heartbeat CPU 0 instructions: 1460000002 cycles: 1872787492 heartbeat IPC: 0.713024 cumulative IPC: 0.549807 (Simulation time: 2 hr 49 min 14 sec) 
Heartbeat CPU 0 instructions: 1470000002 cycles: 1887196472 heartbeat IPC: 0.694012 cumulative IPC: 0.550987 (Simulation time: 2 hr 50 min 24 sec) 
Heartbeat CPU 0 instructions: 1480000000 cycles: 1901766743 heartbeat IPC: 0.686329 cumulative IPC: 0.552098 (Simulation time: 2 hr 51 min 35 sec) 
Heartbeat CPU 0 instructions: 1490000003 cycles: 1916344529 heartbeat IPC: 0.685975 cumulative IPC: 0.553189 (Simulation time: 2 hr 52 min 46 sec) 
Heartbeat CPU 0 instructions: 1500000003 cycles: 1930920957 heartbeat IPC: 0.686039 cumulative IPC: 0.554262 (Simulation time: 2 hr 53 min 57 sec) 
Heartbeat CPU 0 instructions: 1510000001 cycles: 1945488029 heartbeat IPC: 0.68648 cumulative IPC: 0.555321 (Simulation time: 2 hr 55 min 9 sec) 
Heartbeat CPU 0 instructions: 1520000001 cycles: 1960070989 heartbeat IPC: 0.685732 cumulative IPC: 0.556358 (Simulation time: 2 hr 56 min 19 sec) 
Heartbeat CPU 0 instructions: 1530000000 cycles: 1974681845 heartbeat IPC: 0.684423 cumulative IPC: 0.557371 (Simulation time: 2 hr 57 min 33 sec) 
Heartbeat CPU 0 instructions: 1540000000 cycles: 1990314300 heartbeat IPC: 0.639695 cumulative IPC: 0.558061 (Simulation time: 2 hr 58 min 56 sec) 
Heartbeat CPU 0 instructions: 1550000003 cycles: 2004574052 heartbeat IPC: 0.701275 cumulative IPC: 0.559149 (Simulation time: 3 hr 0 min 9 sec) 
Heartbeat CPU 0 instructions: 1560000001 cycles: 2018823945 heartbeat IPC: 0.70176 cumulative IPC: 0.560223 (Simulation time: 3 hr 1 min 22 sec) 
Heartbeat CPU 0 instructions: 1570000004 cycles: 2033069545 heartbeat IPC: 0.701971 cumulative IPC: 0.561282 (Simulation time: 3 hr 2 min 35 sec) 
Heartbeat CPU 0 instructions: 1580000003 cycles: 2047299249 heartbeat IPC: 0.702755 cumulative IPC: 0.56233 (Simulation time: 3 hr 3 min 48 sec) 
Heartbeat CPU 0 instructions: 1590000002 cycles: 2061544998 heartbeat IPC: 0.701964 cumulative IPC: 0.563358 (Simulation time: 3 hr 5 min 1 sec) 
Heartbeat CPU 0 instructions: 1600000000 cycles: 2075798651 heartbeat IPC: 0.701574 cumulative IPC: 0.564369 (Simulation time: 3 hr 6 min 14 sec) 
Heartbeat CPU 0 instructions: 1610000000 cycles: 2091473828 heartbeat IPC: 0.637951 cumulative IPC: 0.564956 (Simulation time: 3 hr 7 min 22 sec) 
Heartbeat CPU 0 instructions: 1620000000 cycles: 2107712827 heartbeat IPC: 0.615802 cumulative IPC: 0.565373 (Simulation time: 3 hr 8 min 28 sec) 
Heartbeat CPU 0 instructions: 1630000000 cycles: 2123956224 heartbeat IPC: 0.615635 cumulative IPC: 0.565782 (Simulation time: 3 hr 9 min 34 sec) 
Heartbeat CPU 0 instructions: 1640000000 cycles: 2140197857 heartbeat IPC: 0.615702 cumulative IPC: 0.566185 (Simulation time: 3 hr 10 min 40 sec) 
Heartbeat CPU 0 instructions: 1650000002 cycles: 2152790594 heartbeat IPC: 0.794109 cumulative IPC: 0.567601 (Simulation time: 3 hr 11 min 50 sec) 
Heartbeat CPU 0 instructions: 1660000000 cycles: 2165946698 heartbeat IPC: 0.760103 cumulative IPC: 0.568843 (Simulation time: 3 hr 12 min 54 sec) 
Heartbeat CPU 0 instructions: 1670000001 cycles: 2179076121 heartbeat IPC: 0.761648 cumulative IPC: 0.570076 (Simulation time: 3 hr 13 min 58 sec) 
Heartbeat CPU 0 instructions: 1680000004 cycles: 2192233122 heartbeat IPC: 0.760052 cumulative IPC: 0.571287 (Simulation time: 3 hr 15 min 2 sec) 
Heartbeat CPU 0 instructions: 1690000000 cycles: 2205355855 heartbeat IPC: 0.762036 cumulative IPC: 0.572491 (Simulation time: 3 hr 16 min 7 sec) 
Heartbeat CPU 0 instructions: 1700000003 cycles: 2218500998 heartbeat IPC: 0.760737 cumulative IPC: 0.573674 (Simulation time: 3 hr 17 min 11 sec) 
Heartbeat CPU 0 instructions: 1710000004 cycles: 2231643285 heartbeat IPC: 0.760903 cumulative IPC: 0.574843 (Simulation time: 3 hr 18 min 15 sec) 
Heartbeat CPU 0 instructions: 1720000003 cycles: 2269248977 heartbeat IPC: 0.265917 cumulative IPC: 0.569421 (Simulation time: 3 hr 20 min 1 sec) 
Heartbeat CPU 0 instructions: 1730000001 cycles: 2305293654 heartbeat IPC: 0.277433 cumulative IPC: 0.56459 (Simulation time: 3 hr 21 min 47 sec) 
Heartbeat CPU 0 instructions: 1740000004 cycles: 2320392079 heartbeat IPC: 0.662321 cumulative IPC: 0.565262 (Simulation time: 3 hr 23 min 4 sec) 
Heartbeat CPU 0 instructions: 1750000003 cycles: 2335130240 heartbeat IPC: 0.678511 cumulative IPC: 0.566018 (Simulation time: 3 hr 24 min 20 sec) 
Heartbeat CPU 0 instructions: 1760000002 cycles: 2349887695 heartbeat IPC: 0.677624 cumulative IPC: 0.566759 (Simulation time: 3 hr 25 min 36 sec) 
Heartbeat CPU 0 instructions: 1770000000 cycles: 2364631165 heartbeat IPC: 0.678266 cumulative IPC: 0.567493 (Simulation time: 3 hr 26 min 52 sec) 
Heartbeat CPU 0 instructions: 1780000002 cycles: 2379382186 heartbeat IPC: 0.677919 cumulative IPC: 0.568217 (Simulation time: 3 hr 28 min 8 sec) 
Heartbeat CPU 0 instructions: 1790000004 cycles: 2394137101 heartbeat IPC: 0.67774 cumulative IPC: 0.568929 (Simulation time: 3 hr 29 min 24 sec) 
Heartbeat CPU 0 instructions: 1800000000 cycles: 2408144859 heartbeat IPC: 0.71389 cumulative IPC: 0.569819 (Simulation time: 3 hr 30 min 42 sec) 
Heartbeat CPU 0 instructions: 1810000001 cycles: 2419750969 heartbeat IPC: 0.861615 cumulative IPC: 0.571296 (Simulation time: 3 hr 31 min 39 sec) 
Heartbeat CPU 0 instructions: 1820000001 cycles: 2431683669 heartbeat IPC: 0.838033 cumulative IPC: 0.572677 (Simulation time: 3 hr 32 min 37 sec) 
Heartbeat CPU 0 instructions: 1830000000 cycles: 2443630881 heartbeat IPC: 0.837015 cumulative IPC: 0.57404 (Simulation time: 3 hr 33 min 35 sec) 
Heartbeat CPU 0 instructions: 1840000002 cycles: 2455561988 heartbeat IPC: 0.838145 cumulative IPC: 0.575393 (Simulation time: 3 hr 34 min 33 sec) 
Heartbeat CPU 0 instructions: 1850000000 cycles: 2467488381 heartbeat IPC: 0.838476 cumulative IPC: 0.576734 (Simulation time: 3 hr 35 min 31 sec) 
Heartbeat CPU 0 instructions: 1860000000 cycles: 2479416227 heartbeat IPC: 0.838374 cumulative IPC: 0.57806 (Simulation time: 3 hr 36 min 29 sec) 
Heartbeat CPU 0 instructions: 1870000000 cycles: 2491355502 heartbeat IPC: 0.837572 cumulative IPC: 0.57937 (Simulation time: 3 hr 37 min 27 sec) 
Heartbeat CPU 0 instructions: 1880000001 cycles: 2506610136 heartbeat IPC: 0.655539 cumulative IPC: 0.579859 (Simulation time: 3 hr 38 min 49 sec) 
Heartbeat CPU 0 instructions: 1890000003 cycles: 2520884539 heartbeat IPC: 0.700555 cumulative IPC: 0.580578 (Simulation time: 3 hr 40 min 0 sec) 
Heartbeat CPU 0 instructions: 1900000002 cycles: 2535062790 heartbeat IPC: 0.705306 cumulative IPC: 0.581313 (Simulation time: 3 hr 41 min 10 sec) 
Heartbeat CPU 0 instructions: 1910000001 cycles: 2549249506 heartbeat IPC: 0.704885 cumulative IPC: 0.582036 (Simulation time: 3 hr 42 min 20 sec) 
Heartbeat CPU 0 instructions: 1920000004 cycles: 2563421195 heartbeat IPC: 0.705632 cumulative IPC: 0.582755 (Simulation time: 3 hr 43 min 31 sec) 
Heartbeat CPU 0 instructions: 1930000002 cycles: 2577589333 heartbeat IPC: 0.705809 cumulative IPC: 0.583466 (Simulation time: 3 hr 44 min 41 sec) 
Heartbeat CPU 0 instructions: 1940000001 cycles: 2591752458 heartbeat IPC: 0.706059 cumulative IPC: 0.584171 (Simulation time: 3 hr 45 min 51 sec) 
Heartbeat CPU 0 instructions: 1950000004 cycles: 2606986827 heartbeat IPC: 0.656411 cumulative IPC: 0.584615 (Simulation time: 3 hr 47 min 1 sec) 
Heartbeat CPU 0 instructions: 1960000004 cycles: 2623234366 heartbeat IPC: 0.615478 cumulative IPC: 0.584815 (Simulation time: 3 hr 48 min 7 sec) 
Heartbeat CPU 0 instructions: 1970000000 cycles: 2639484465 heartbeat IPC: 0.615381 cumulative IPC: 0.585013 (Simulation time: 3 hr 49 min 13 sec) 
Heartbeat CPU 0 instructions: 1980000001 cycles: 2655726477 heartbeat IPC: 0.615687 cumulative IPC: 0.58521 (Simulation time: 3 hr 50 min 19 sec) 
Heartbeat CPU 0 instructions: 1990000001 cycles: 2698638526 heartbeat IPC: 0.233035 cumulative IPC: 0.579334 (Simulation time: 3 hr 52 min 19 sec) 
*** Reached end of trace: traces/433.milc-337B.champsimtrace.xz
Heartbeat CPU 0 instructions: 2000000002 cycles: 2725688296 heartbeat IPC: 0.369689 cumulative IPC: 0.577152 (Simulation time: 3 hr 53 min 52 sec) 
Finished CPU 0 instructions: 1500000003 cycles: 2598968692 cumulative IPC: 0.577152 (Simulation time: 3 hr 53 min 52 sec) 

ChampSim completed all CPUs

Region of Interest Statistics

CPU 0 cumulative IPC: 0.577152 instructions: 1500000003 cycles: 2598968692
cpu0_DTLB TOTAL     ACCESS:  227230135  HIT:  224285597  MISS:    2944538
cpu0_DTLB LOAD      ACCESS:  179973613  HIT:  177269946  MISS:    2703667
cpu0_DTLB RFO       ACCESS:   47256522  HIT:   47015651  MISS:     240871
cpu0_DTLB PREFETCH  ACCESS:          0  HIT:          0  MISS:          0
cpu0_DTLB WRITEBACK ACCESS:          0  HIT:          0  MISS:          0
cpu0_DTLB TRANSLATION ACCESS:          0  HIT:          0  MISS:          0
cpu0_DTLB PREFETCH  REQUESTED:          0  ISSUED:          0  USEFUL:          0  USELESS:          0
cpu0_DTLB AVERAGE MISS LATENCY: 17.4201 cycles
cpu0_ITLB TOTAL     ACCESS:  149377543  HIT:  149377543  MISS:          0
cpu0_ITLB LOAD      ACCESS:  149377543  HIT:  149377543  MISS:          0
cpu0_ITLB RFO       ACCESS:          0  HIT:          0  MISS:          0
cpu0_ITLB PREFETCH  ACCESS:          0  HIT:          0  MISS:          0
cpu0_ITLB WRITEBACK ACCESS:          0  HIT:          0  MISS:          0
cpu0_ITLB TRANSLATION ACCESS:          0  HIT:          0  MISS:          0
cpu0_ITLB PREFETCH  REQUESTED:          0  ISSUED:          0  USEFUL:          0  USELESS:          0
cpu0_ITLB AVERAGE MISS LATENCY: -nan cycles
cpu0_L1I TOTAL     ACCESS:    2587190  HIT:    2587178  MISS:         12
cpu0_L1I LOAD      ACCESS:    2587190  HIT:    2587178  MISS:         12
cpu0_L1I RFO       ACCESS:          0  HIT:          0  MISS:          0
cpu0_L1I PREFETCH  ACCESS:          0  HIT:          0  MISS:          0
cpu0_L1I WRITEBACK ACCESS:          0  HIT:          0  MISS:          0
cpu0_L1I TRANSLATION ACCESS:          0  HIT:          0  MISS:          0
cpu0_L1I PREFETCH  REQUESTED:          0  ISSUED:          0  USEFUL:          0  USELESS:          0
cpu0_L1I AVERAGE MISS LATENCY: 283.583 cycles
cpu0_STLB TOTAL     ACCESS:    2944538  HIT:       6258  MISS:    2938280
cpu0_STLB LOAD      ACCESS:    2703667  HIT:       5536  MISS:    2698131
cpu0_STLB RFO       ACCESS:     240871  HIT:        722  MISS:     240149
cpu0_STLB PREFETCH  ACCESS:          0  HIT:          0  MISS:          0
cpu0_STLB WRITEBACK ACCESS:          0  HIT:          0  MISS:          0
cpu0_STLB TRANSLATION ACCESS:          0  HIT:          0  MISS:          0
cpu0_STLB PREFETCH  REQUESTED:          0  ISSUED:          0  USEFUL:          0  USELESS:          0
cpu0_STLB AVERAGE MISS LATENCY: 8.43784 cycles
cpu0_L1D TOTAL     ACCESS:  154068845  HIT:  118818073  MISS:   35250772
cpu0_L1D LOAD      ACCESS:   96753561  HIT:   72702955  MISS:   24050606
cpu0_L1D RFO       ACCESS:   54377070  HIT:   43216703  MISS:   11160367
cpu0_L1D PREFETCH  ACCESS:          0  HIT:          0  MISS:          0
cpu0_L1D WRITEBACK ACCESS:          0  HIT:          0  MISS:          0
cpu0_L1D TRANSLATION ACCESS:    2938214  HIT:    2898415  MISS:      39799
cpu0_L1D PREFETCH  REQUESTED:          0  ISSUED:          0  USEFUL:          0  USELESS:          0
cpu0_L1D AVERAGE MISS LATENCY: 319.462 cycles
cpu0_L2C TOTAL     ACCESS:   48810745  HIT:   13595106  MISS:   35215639
cpu0_L2C LOAD      ACCESS:   24050618  HIT:        746  MISS:   24049872
cpu0_L2C RFO       ACCESS:   11160367  HIT:        163  MISS:   11160204
cpu0_L2C PREFETCH  ACCESS:          0  HIT:          0  MISS:          0
cpu0_L2C WRITEBACK ACCESS:   13559961  HIT:   13559937  MISS:         24
cpu0_L2C TRANSLATION ACCESS:      39799  HIT:      34260  MISS:       5539
cpu0_L2C PREFETCH  REQUESTED:          0  ISSUED:          0  USEFUL:          0  USELESS:          0
cpu0_L2C AVERAGE MISS LATENCY: 308.761 cycles
LLC TOTAL     ACCESS:   48770345  HIT:   13578658  MISS:   35191687
LLC LOAD      ACCESS:   24049872  HIT:       6463  MISS:   24043409
LLC RFO       ACCESS:   11160204  HIT:      12931  MISS:   11147273
LLC PREFETCH  ACCESS:          0  HIT:          0  MISS:          0
LLC WRITEBACK ACCESS:   13554730  HIT:   13554706  MISS:         24
LLC TRANSLATION ACCESS:       5539  HIT:       4558  MISS:        981
LLC PREFETCH  REQUESTED:          0  ISSUED:          0  USEFUL:          0  USELESS:          0
LLC AVERAGE MISS LATENCY: 287.957 cycles
~~~~~~~~~~Reuse Distance Profiler output~~~~~~~~~~
0	58108032	23123968
1	36692976	29358512
2	27986672	25293520
3	13725680	11501296
4	6703472	5757760
5	6630128	5606160
6	7223232	5073664
7	4898896	3270080
8	3577952	2209296
9	3651520	1653424
10	1156624	845200
11	1674384	1024480
12	2027488	1265024
13	1103632	893616
14	935472	806496
15	806720	722672
16	1693520	1238160
17	1175136	1039216
18	948160	918912
19	1140336	1104304
20	749552	743872
21	1178224	1090656
22	1207200	1049920
23	1388320	1384976
24	780688	780640
25	1171824	1171488
26	966976	569392
27	958304	558400
28	1023984	1023984
29	762000	761872
30	657776	657456
31	438688	432944
32	751504	352096
33	978304	534048
34	559056	482112
35	289440	247808
36	192400	192112
37	169136	168800
38	531248	131600
39	459424	59232
40	84816	84688
41	28096	28064
42	8512	8464
43	28704	28672
44	12464	12288
45	12656	12592
46	14960	14912
47	853072	11840
48	46240	7728
49	142720	21152
50	406656	406624
51	102016	25056
52	87456	7344
53	79632	2704
54	122224	122192
55	480336	438784
56	520048	520048
57	443792	442944
58	436288	435632
59	81968	80304
60	87568	41744
61	79040	336
62	165296	384
63	511776	401872
64	461584	1680
66	252032	5472
68	109392	29312
70	84912	7888
72	71744	33280
74	50896	50832
76	20384	20256
78	173040	134576
80	274768	233216
82	914288	914288
84	951632	951632
86	177680	177664
88	81344	81344
90	1200	1200
92	2224	2224
94	416	416
96	832	832
98	400	400
100	368	368
102	0	0
104	0	0
106	0	0
108	0	0
110	0	0
112	0	0
114	0	0
116	0	0
118	0	0
120	0	0
122	0	0
124	0	0
126	16	0
128	0	0
132	0	0
136	0	0
140	0	0
144	0	0
148	0	0
152	0	0
156	0	0
160	0	0
164	0	0
168	0	0
172	0	0
176	0	0
180	0	0
184	0	0
188	0	0
192	0	0
196	0	0
200	0	0
204	0	0
208	0	0
212	0	0
216	32	32
220	320	320
224	448	448
228	1280	1280
232	960	960
236	704	704
240	1232	1232
244	1104	1104
248	1056	1056
252	736	736
256	2320	2320
264	2352	2352
272	1952	1952
280	1808	1808
288	1808	1808
296	2048	2048
304	1712	1712
312	1408	1408
320	272	272
328	176	176
336	64	64
344	32	32
352	0	0
360	0	0
368	0	0
376	0	0
384	0	0
392	0	0
400	0	0
408	0	0
416	0	0
424	0	0
432	0	0
440	0	0
448	0	0
456	0	0
464	0	0
472	0	0
480	0	0
488	0	0
496	0	0
504	0	0
512	0	0
528	0	0
544	0	0
560	0	0
576	0	0
592	0	0
608	0	0
624	0	0
640	0	0
656	0	0
672	0	0
688	0	0
704	0	0
720	0	0
736	0	0
752	0	0
768	0	0
784	0	0
800	0	0
816	0	0
832	0	0
848	0	0
864	0	0
880	0	0
896	0	0
912	0	0
928	0	0
944	0	0
960	0	0
976	0	0
992	0	0
1008	0	0
1024	0	0
1056	0	0
1088	0	0
1120	0	0
1152	0	0
1184	0	0
1216	0	0
1248	0	0
1280	0	0
1312	0	0
1344	0	0
1376	0	0
1408	0	0
1440	0	0
1472	0	0
1504	0	0
1536	0	0
1568	0	0
1600	0	0
1632	0	0
1664	0	0
1696	0	0
1728	0	0
1760	0	0
1792	0	0
1824	0	0
1856	0	0
1888	0	0
1920	0	0
1952	0	0
1984	0	0
2016	0	0
2048	16	16
2112	144	64
2176	0	0
2240	0	0
2304	0	0
2368	0	0
2432	0	0
2496	0	0
2560	0	0
2624	0	0
2688	0	0
2752	0	0
2816	0	0
2880	0	0
2944	0	0
3008	0	0
3072	0	0
3136	0	0
3200	0	0
3264	0	0
3328	0	0
3392	0	0
3456	0	0
3520	0	0
3584	0	0
3648	0	0
3712	0	0
3776	0	0
3840	0	0
3904	0	0
3968	0	0
4032	0	0
4096	0	0
4224	0	0
4352	0	0
4480	0	0
4608	0	0
4736	0	0
4864	0	0
4992	0	0
5120	0	0
5248	1808	1808
5376	3408	3408
5504	384	384
5632	0	0
5760	0	0
5888	0	0
6016	0	0
6144	0	0
6272	0	0
6400	0	0
6528	0	0
6656	0	0
6784	0	0
6912	0	0
7040	0	0
7168	0	0
7296	0	0
7424	0	0
7552	0	0
7680	0	0
7808	0	0
7936	0	0
8064	0	0
8192	0	0
8448	0	0
8704	0	0
8960	0	0
9216	0	0
9472	0	0
9728	0	0
9984	0	0
10240	0	0
10496	0	0
10752	0	0
11008	0	0
11264	0	0
11520	0	0
11776	0	0
12032	0	0
12288	0	0
12544	0	0
12800	0	0
13056	0	0
13312	0	0
13568	0	0
13824	0	0
14080	0	0
14336	0	0
14592	0	0
14848	0	0
15104	0	0
15360	0	0
15616	0	0
15872	0	0
16128	0	0
16384	2080	2080
16896	0	0
17408	0	0
17920	0	0
18432	0	0
18944	0	0
19456	0	0
19968	0	0
20480	0	0
20992	0	0
21504	0	0
22016	0	0
22528	0	0
23040	0	0
23552	0	0
24064	0	0
24576	0	0
25088	0	0
25600	0	0
26112	0	0
26624	0	0
27136	0	0
27648	0	0
28160	0	0
28672	0	0
29184	0	0
29696	0	0
30208	0	0
30720	0	0
31232	0	0
31744	0	0
32256	0	0
32768	0	0
33792	0	0
34816	0	0
35840	0	0
36864	0	0
37888	0	0
38912	0	0
39936	0	0
40960	0	0
41984	0	0
43008	0	0
44032	0	0
45056	0	0
46080	0	0
47104	0	0
48128	0	0
49152	0	0
50176	0	0
51200	0	0
52224	0	0
53248	0	0
54272	0	0
55296	0	0
56320	0	0
57344	0	0
58368	0	0
59392	0	0
60416	0	0
61440	0	0
62464	0	0
63488	0	0
64512	0	0
65536	0	0
67584	0	0
69632	0	0
71680	0	0
73728	0	0
75776	0	0
77824	0	0
79872	0	0
81920	0	0
83968	0	0
86016	0	0
88064	0	0
90112	0	0
92160	0	0
94208	0	0
96256	0	0
98304	0	0
100352	0	0
102400	0	0
104448	0	0
106496	0	0
108544	0	0
110592	0	0
112640	0	0
114688	0	0
116736	0	0
118784	0	0
120832	0	0
122880	0	0
124928	0	0
126976	0	0
129024	11584	11584
131072	0	0
135168	0	0
139264	0	0
143360	0	0
147456	0	0
151552	0	0
155648	0	0
159744	0	0
163840	0	0
167936	0	0
172032	0	0
176128	0	0
180224	0	0
184320	0	0
188416	0	0
192512	0	0
196608	0	0
200704	0	0
204800	0	0
208896	0	0
212992	0	0
217088	0	0
221184	0	0
225280	0	0
229376	0	0
233472	0	0
237568	0	0
241664	0	0
245760	0	0
249856	0	0
253952	0	0
258048	0	0
262144	0	0
270336	0	0
278528	0	0
286720	0	0
294912	0	0
303104	0	0
311296	0	0
319488	0	0
327680	64	64
335872	0	0
344064	0	0
352256	0	0
360448	0	0
368640	0	0
376832	0	0
385024	0	0
393216	0	0
401408	0	0
409600	0	0
417792	0	0
425984	0	0
434176	0	0
442368	0	0
450560	0	0
458752	0	0
466944	0	0
475136	0	0
483328	0	0
491520	0	0
499712	0	0
507904	400	192
516096	1328	752
524288	2688	1280
540672	5024	2032
557056	11456	6320
573440	9232	6176
589824	9600	8080
606208	10464	8912
622592	14096	6480
638976	13248	5664
655360	13296	4832
671744	25184	4256
688128	28000	2672
704512	43920	2608
720896	44112	2576
737280	45264	3104
753664	44576	2656
770048	45728	2768
786432	45840	2832
802816	46368	2560
819200	46752	2832
835584	39296	2816
851968	24624	2416
868352	26208	2352
884736	16416	2720
901120	4304	2560
917504	4336	2768
933888	4848	2864
950272	4496	2464
966656	4608	2528
983040	4320	2272
999424	4448	2528
1015808	4608	2608
1032192	4720	2624
1048576	28416	14064
1081344	15216	10640
1114112	9056	5296
1146880	9120	5296
1179648	8528	5264
1212416	9168	5488
1245184	9248	5872
1277952	9008	5360
1310720	12544	8928
1343488	16688	12784
1376256	45936	42384
1409024	88160	84672
1441792	94624	91008
1474560	96592	92608
1507328	109104	105760
1540096	122800	107088
1572864	111328	107664
1605632	115984	112544
1638400	114240	111088
1671168	113088	109872
1703936	109616	106928
1736704	111840	109888
1769472	80048	78064
1802240	47728	45552
1835008	49072	46976
1867776	48336	46464
1900544	46928	44032
1933312	51024	46736
1966080	49648	45424
1998848	49312	45296
2031616	92736	45696
2064384	122784	46272
2097152	163232	90528
2162688	108336	95872
2228224	154064	91440
2293760	414064	242992
2359296	265392	92176
2424832	438368	327632
2490368	112288	98704
2555904	134192	121520
2621440	258912	192160
2686976	1161200	1037216
2752512	681120	494048
2818048	673024	474928
2883584	367648	277216
2949120	297680	176656
3014656	244784	117888
3080192	145632	59984
3145728	131824	46080
3211264	72176	40880
3276800	51616	34144
3342336	45440	27904
3407872	44512	26928
3473408	45344	27840
3538944	44896	27200
3604480	45376	28032
3670016	45520	27712
3735552	52256	34656
3801088	45104	27744
3866624	49872	30704
3932160	48688	30848
3997696	50800	33600
4063232	256624	239184
4128768	310624	293296
4194304	280272	245904
4325376	125616	92224
4456448	160640	127536
4587520	286048	196752
4718592	354080	262736
4849664	572224	483264
4980736	783536	691408
5111808	824288	734064
5242880	613824	526496
5373952	564480	475296
5505024	546816	446352
5636096	318384	278480
5767168	192256	163264
5898240	191696	162976
6029312	179456	150672
6160384	375808	141520
6291456	195472	121760
6422528	188688	115232
6553600	171936	97264
6684672	201824	83920
6815744	212048	73248
6946816	227552	84896
7077888	370064	186976
7208960	737520	451744
7340032	942720	589008
7471104	728016	544128
7602176	748864	651104
7733248	679600	374944
7864320	460352	151024
7995392	290240	139776
8126464	124464	77344
8257536	99568	70768
8388608	199536	143376
8650752	258688	184432
8912896	330528	274432
9175040	243264	224016
9437184	197760	147808
9699328	220576	119408
9961472	667104	565632
10223616	201376	99280
10485760	165744	58224
10747904	154496	61856
11010048	156560	88608
11272192	140256	110032
11534336	138192	109616
11796480	301504	109264
12058624	213216	140784
12320768	304800	257744
12582912	473056	428752
12845056	210672	136624
13107200	194176	96928
13369344	312736	217040
13631488	352368	257520
13893632	557712	451904
14155776	634704	330320
14417920	411936	223216
14680064	293264	132272
14942208	118544	37792
15204352	90656	10288
15466496	95504	10160
15728640	108480	5488
15990784	665360	262368
16252928	346928	215472
16515072	217040	4064
16777216	746880	27600
17301504	286848	46832
17825792	373856	364096
18350080	313264	302496
18874368	246384	74688
19398656	230864	76048
19922944	100448	75312
20447232	637168	245920
20971520	733728	367776
21495808	323424	198048
22020096	160000	127840
22544384	65520	38992
23068672	64640	38400
23592960	64544	38048
24117248	49440	22704
24641536	1552	0
25165824	1104	0
25690112	38144	0
26214400	149264	75536
26738688	75344	4464
27262976	9392	0
27787264	434336	434336
28311552	45744	45744
28835840	51808	0
29360128	72464	0
29884416	55456	0
30408704	0	0
30932992	0	0
31457280	170704	170704
31981568	1289792	1289776
32505856	487248	480160
33030144	172416	0
33554432	0	0
34603008	629232	629232
35651584	183888	183888
36700160	0	0
37748736	0	0
38797312	0	0
39845888	94592	94592
40894464	65840	65840
41943040	0	0
42991616	87472	0
44040192	93008	0
45088768	10432	10432
46137344	98432	0
47185920	81920	0
48234496	0	0
49283072	40096	40096
50331648	54720	54720
51380224	54880	54880
52428800	55488	55488
53477376	55184	55184
54525952	55040	55040
55574528	57616	55520
56623104	54512	54512
57671680	55728	55728
58720256	8512	8496
59768832	0	0
60817408	0	0
61865984	0	0
62914560	0	0
63963136	0	0
65011712	0	0
66060288	0	0
67108864	483072	483072
69206016	222800	222800
71303168	0	0
73400320	0	0
75497472	0	0
77594624	90080	90080
79691776	401488	401488
81788928	0	0
83886080	0	0
85983232	0	0
88080384	0	0
90177536	0	0
92274688	0	0
94371840	52048	0
96468992	63008	0
98566144	82032	20928
100663296	11632	0
102760448	59856	0
104857600	0	0
106954752	0	0
109051904	0	0
111149056	0	0
113246208	0	0
115343360	0	0
117440512	0	0
119537664	0	0
121634816	0	0
123731968	0	0
125829120	0	0
127926272	0	0
130023424	0	0
132120576	0	0
134217728	0	0
138412032	0	0
142606336	0	0
146800640	0	0
150994944	0	0
155189248	0	0
159383552	0	0
163577856	0	0
167772160	0	0
171966464	0	0
176160768	0	0
180355072	70544	70544
184549376	9472	9472
188743680	60064	60064
192937984	19904	19904
197132288	0	0
201326592	10080	10080
205520896	0	0
209715200	0	0
213909504	0	0
218103808	0	0
222298112	0	0
226492416	0	0
230686720	0	0
234881024	0	0
239075328	0	0
243269632	0	0
247463936	0	0
251658240	0	0
255852544	0	0
260046848	0	0
264241152	0	0
268435456	0	0
276824064	0	0
285212672	0	0
293601280	0	0
301989888	0	0
310378496	0	0
318767104	0	0
327155712	0	0
335544320	0	0
343932928	0	0
352321536	0	0
360710144	0	0
369098752	0	0
377487360	0	0
385875968	0	0
394264576	0	0
402653184	0	0
411041792	0	0
419430400	0	0
427819008	0	0
436207616	0	0
444596224	0	0
452984832	0	0
461373440	0	0
469762048	0	0
478150656	0	0
486539264	0	0
494927872	0	0
503316480	0	0
511705088	0	0
520093696	0	0
528482304	0	0
536870912	0	0
553648128	0	0
570425344	0	0
587202560	0	0
603979776	0	0
620756992	0	0
637534208	0	0
654311424	0	0
671088640	0	0
687865856	0	0
704643072	0	0
721420288	0	0
738197504	0	0
754974720	0	0
771751936	0	0
788529152	0	0
805306368	0	0
822083584	0	0
838860800	0	0
855638016	0	0
872415232	0	0
889192448	0	0
905969664	0	0
922746880	0	0
939524096	0	0
956301312	0	0
973078528	0	0
989855744	0	0
1006632960	0	0
1023410176	0	0
1040187392	0	0
1056964608	0	0
1073741824	0	0
1107296256	0	0
1140850688	0	0
1174405120	0	0
1207959552	0	0
1241513984	0	0
1275068416	0	0
1308622848	0	0
1342177280	0	0
1375731712	0	0
1409286144	0	0
1442840576	0	0
1476395008	0	0
1509949440	0	0
1543503872	0	0
1577058304	0	0
1610612736	0	0
1644167168	0	0
1677721600	0	0
1711276032	0	0
1744830464	0	0
1778384896	0	0
1811939328	0	0
1845493760	0	0
1879048192	0	0
1912602624	0	0
1946157056	0	0
1979711488	0	0
2013265920	0	0
2046820352	0	0
2080374784	0	0
2113929216	0	0
2147483648	0	0
2214592512	0	0
2281701376	0	0
2348810240	0	0
2415919104	0	0
2483027968	0	0
2550136832	0	0
2617245696	0	0
2684354560	0	0
2751463424	0	0
2818572288	0	0
2885681152	0	0
2952790016	0	0
3019898880	0	0
3087007744	0	0
3154116608	0	0
3221225472	0	0
3288334336	0	0
3355443200	0	0
3422552064	0	0
3489660928	0	0
3556769792	0	0
3623878656	0	0
3690987520	0	0
3758096384	0	0
3825205248	0	0
3892314112	0	0
3959422976	0	0
4026531840	0	0
4093640704	0	0
4160749568	0	0
4227858432	0	0
~~~~~~~~~~Reuse Distance Profiler output end~~~~~~~~~~

DRAM Statistics
 CHANNEL 0
 RQ ROW_BUFFER_HIT:    8251542  ROW_BUFFER_MISS:   26940078
 DBUS AVG_CONGESTED_CYCLE:    3.95507
 WQ ROW_BUFFER_HIT:    1497006  ROW_BUFFER_MISS:   12038031  FULL:          0


CPU 0 Branch Prediction Accuracy: 52.6578% MPKI: 21.4153 Average ROB Occupancy at Mispredict: 132.855
Branch type MPKI
BRANCH_DIRECT_JUMP: 3.33333e-06
BRANCH_INDIRECT: 0
BRANCH_CONDITIONAL: 21.4153
BRANCH_DIRECT_CALL: 9.33333e-06
BRANCH_INDIRECT_CALL: 0
BRANCH_RETURN: 1.06667e-05

