
*** ChampSim Multicore Out-of-Order Simulator ***

Warmup Instructions: 500000000
Simulation Instructions: 1500000000
Number of CPUs: 1
Off-chip DRAM Size: 4 GiB Channels: 1 Width: 64-bit Data Rate: 3200 MT/s

VirtualMemory physical capacity: 8588881920 num_ppages: 2096895
VirtualMemory page size: 4096 log2_page_size: 12

CPU 0 runs traces/434.zeusmp-10B.champsimtrace.xz
CPU 0 Bimodal branch predictor
Basic BTB sets: 1024 ways: 8 indirect buffer size: 4096 RAS size: 64
Initializing LRU.
Initializing LRU.
Initializing LRU.
Initializing LRU.
Initializing rdLRU.
Initializing LRU.
Initializing LRU.
Heartbeat CPU 0 instructions: 10000000 cycles: 2635715 heartbeat IPC: 3.79404 cumulative IPC: 3.79404 (Simulation time: 0 hr 0 min 58 sec) 
Heartbeat CPU 0 instructions: 20000000 cycles: 5249085 heartbeat IPC: 3.82648 cumulative IPC: 3.81019 (Simulation time: 0 hr 1 min 49 sec) 
Heartbeat CPU 0 instructions: 30000001 cycles: 7861873 heartbeat IPC: 3.82733 cumulative IPC: 3.81588 (Simulation time: 0 hr 2 min 47 sec) 
Heartbeat CPU 0 instructions: 40000000 cycles: 10497480 heartbeat IPC: 3.79419 cumulative IPC: 3.81044 (Simulation time: 0 hr 3 min 20 sec) 
Heartbeat CPU 0 instructions: 50000000 cycles: 13110837 heartbeat IPC: 3.8265 cumulative IPC: 3.81364 (Simulation time: 0 hr 3 min 52 sec) 
Heartbeat CPU 0 instructions: 60000000 cycles: 15723626 heartbeat IPC: 3.82733 cumulative IPC: 3.81591 (Simulation time: 0 hr 4 min 25 sec) 
Heartbeat CPU 0 instructions: 70000000 cycles: 18359243 heartbeat IPC: 3.79418 cumulative IPC: 3.81279 (Simulation time: 0 hr 4 min 57 sec) 
Heartbeat CPU 0 instructions: 80000002 cycles: 20972621 heartbeat IPC: 3.82647 cumulative IPC: 3.8145 (Simulation time: 0 hr 5 min 30 sec) 
Heartbeat CPU 0 instructions: 90000001 cycles: 23585558 heartbeat IPC: 3.82711 cumulative IPC: 3.81589 (Simulation time: 0 hr 6 min 2 sec) 
Heartbeat CPU 0 instructions: 100000004 cycles: 26221290 heartbeat IPC: 3.79401 cumulative IPC: 3.81369 (Simulation time: 0 hr 6 min 35 sec) 
Heartbeat CPU 0 instructions: 110000000 cycles: 28834402 heartbeat IPC: 3.82685 cumulative IPC: 3.81489 (Simulation time: 0 hr 7 min 7 sec) 
Heartbeat CPU 0 instructions: 120000003 cycles: 31447281 heartbeat IPC: 3.8272 cumulative IPC: 3.81591 (Simulation time: 0 hr 7 min 40 sec) 
Heartbeat CPU 0 instructions: 130000001 cycles: 34083190 heartbeat IPC: 3.79376 cumulative IPC: 3.8142 (Simulation time: 0 hr 8 min 12 sec) 
Heartbeat CPU 0 instructions: 140000003 cycles: 36696172 heartbeat IPC: 3.82705 cumulative IPC: 3.81511 (Simulation time: 0 hr 8 min 45 sec) 
Heartbeat CPU 0 instructions: 150000000 cycles: 39309066 heartbeat IPC: 3.82717 cumulative IPC: 3.81591 (Simulation time: 0 hr 9 min 19 sec) 
Heartbeat CPU 0 instructions: 160000001 cycles: 41944944 heartbeat IPC: 3.7938 cumulative IPC: 3.81452 (Simulation time: 0 hr 9 min 51 sec) 
Heartbeat CPU 0 instructions: 170000003 cycles: 44557953 heartbeat IPC: 3.82701 cumulative IPC: 3.81526 (Simulation time: 0 hr 10 min 37 sec) 
Heartbeat CPU 0 instructions: 180000003 cycles: 47170841 heartbeat IPC: 3.82718 cumulative IPC: 3.81592 (Simulation time: 0 hr 11 min 35 sec) 
Heartbeat CPU 0 instructions: 190000001 cycles: 49806748 heartbeat IPC: 3.79376 cumulative IPC: 3.81474 (Simulation time: 0 hr 12 min 17 sec) 
Heartbeat CPU 0 instructions: 200000002 cycles: 52419763 heartbeat IPC: 3.827 cumulative IPC: 3.81536 (Simulation time: 0 hr 13 min 1 sec) 
Heartbeat CPU 0 instructions: 210000000 cycles: 55032645 heartbeat IPC: 3.82719 cumulative IPC: 3.81592 (Simulation time: 0 hr 13 min 43 sec) 
Heartbeat CPU 0 instructions: 220000001 cycles: 57668538 heartbeat IPC: 3.79378 cumulative IPC: 3.81491 (Simulation time: 0 hr 14 min 29 sec) 
Heartbeat CPU 0 instructions: 230000002 cycles: 60281585 heartbeat IPC: 3.82695 cumulative IPC: 3.81543 (Simulation time: 0 hr 15 min 2 sec) 
Heartbeat CPU 0 instructions: 240000003 cycles: 62894429 heartbeat IPC: 3.82725 cumulative IPC: 3.81592 (Simulation time: 0 hr 15 min 54 sec) 
Heartbeat CPU 0 instructions: 250000001 cycles: 65530330 heartbeat IPC: 3.79377 cumulative IPC: 3.81503 (Simulation time: 0 hr 16 min 53 sec) 
Heartbeat CPU 0 instructions: 260000004 cycles: 68143438 heartbeat IPC: 3.82686 cumulative IPC: 3.81548 (Simulation time: 0 hr 17 min 51 sec) 
Heartbeat CPU 0 instructions: 270000003 cycles: 70756214 heartbeat IPC: 3.82735 cumulative IPC: 3.81592 (Simulation time: 0 hr 18 min 48 sec) 
Heartbeat CPU 0 instructions: 280000001 cycles: 73392107 heartbeat IPC: 3.79378 cumulative IPC: 3.81512 (Simulation time: 0 hr 19 min 27 sec) 
Heartbeat CPU 0 instructions: 290000000 cycles: 76005219 heartbeat IPC: 3.82685 cumulative IPC: 3.81553 (Simulation time: 0 hr 20 min 16 sec) 
Heartbeat CPU 0 instructions: 300000003 cycles: 78617977 heartbeat IPC: 3.82737 cumulative IPC: 3.81592 (Simulation time: 0 hr 20 min 49 sec) 
Heartbeat CPU 0 instructions: 310000001 cycles: 81253864 heartbeat IPC: 3.79379 cumulative IPC: 3.8152 (Simulation time: 0 hr 21 min 23 sec) 
Heartbeat CPU 0 instructions: 320000000 cycles: 83867015 heartbeat IPC: 3.8268 cumulative IPC: 3.81556 (Simulation time: 0 hr 21 min 58 sec) 
Heartbeat CPU 0 instructions: 330000001 cycles: 86479748 heartbeat IPC: 3.82741 cumulative IPC: 3.81592 (Simulation time: 0 hr 22 min 34 sec) 
Heartbeat CPU 0 instructions: 340000001 cycles: 89115629 heartbeat IPC: 3.7938 cumulative IPC: 3.81527 (Simulation time: 0 hr 23 min 11 sec) 
Heartbeat CPU 0 instructions: 350000003 cycles: 91728828 heartbeat IPC: 3.82673 cumulative IPC: 3.81559 (Simulation time: 0 hr 23 min 45 sec) 
Heartbeat CPU 0 instructions: 360000003 cycles: 94341534 heartbeat IPC: 3.82745 cumulative IPC: 3.81592 (Simulation time: 0 hr 24 min 22 sec) 
Heartbeat CPU 0 instructions: 370000001 cycles: 96977415 heartbeat IPC: 3.7938 cumulative IPC: 3.81532 (Simulation time: 0 hr 25 min 2 sec) 
Heartbeat CPU 0 instructions: 380000001 cycles: 99590620 heartbeat IPC: 3.82672 cumulative IPC: 3.81562 (Simulation time: 0 hr 25 min 48 sec) 
Heartbeat CPU 0 instructions: 390000003 cycles: 102203300 heartbeat IPC: 3.82749 cumulative IPC: 3.81592 (Simulation time: 0 hr 26 min 34 sec) 
Heartbeat CPU 0 instructions: 400000001 cycles: 104839191 heartbeat IPC: 3.79378 cumulative IPC: 3.81537 (Simulation time: 0 hr 27 min 15 sec) 
Heartbeat CPU 0 instructions: 410000001 cycles: 107452434 heartbeat IPC: 3.82666 cumulative IPC: 3.81564 (Simulation time: 0 hr 27 min 47 sec) 
Heartbeat CPU 0 instructions: 420000003 cycles: 110065082 heartbeat IPC: 3.82754 cumulative IPC: 3.81592 (Simulation time: 0 hr 28 min 21 sec) 
Heartbeat CPU 0 instructions: 430000001 cycles: 112700968 heartbeat IPC: 3.79379 cumulative IPC: 3.81541 (Simulation time: 0 hr 28 min 54 sec) 
Heartbeat CPU 0 instructions: 440000001 cycles: 115314232 heartbeat IPC: 3.82663 cumulative IPC: 3.81566 (Simulation time: 0 hr 29 min 27 sec) 
Heartbeat CPU 0 instructions: 450000001 cycles: 117926850 heartbeat IPC: 3.82758 cumulative IPC: 3.81592 (Simulation time: 0 hr 30 min 0 sec) 
Heartbeat CPU 0 instructions: 460000003 cycles: 120562744 heartbeat IPC: 3.79378 cumulative IPC: 3.81544 (Simulation time: 0 hr 30 min 38 sec) 
Heartbeat CPU 0 instructions: 470000003 cycles: 123176036 heartbeat IPC: 3.82659 cumulative IPC: 3.81568 (Simulation time: 0 hr 31 min 37 sec) 
Heartbeat CPU 0 instructions: 480000001 cycles: 125788636 heartbeat IPC: 3.8276 cumulative IPC: 3.81592 (Simulation time: 0 hr 32 min 31 sec) 
Heartbeat CPU 0 instructions: 490000001 cycles: 128424529 heartbeat IPC: 3.79378 cumulative IPC: 3.81547 (Simulation time: 0 hr 33 min 10 sec) 
Heartbeat CPU 0 instructions: 500000001 cycles: 131037837 heartbeat IPC: 3.82657 cumulative IPC: 3.81569 (Simulation time: 0 hr 34 min 6 sec) 

Warmup complete CPU 0 instructions: 500000001 cycles: 131037837 (Simulation time: 0 hr 34 min 6 sec) 

Heartbeat CPU 0 instructions: 510000004 cycles: 137484024 heartbeat IPC: 1.55131 cumulative IPC: 1.55131 (Simulation time: 0 hr 35 min 39 sec) 
Heartbeat CPU 0 instructions: 520000003 cycles: 143938009 heartbeat IPC: 1.54943 cumulative IPC: 1.55037 (Simulation time: 0 hr 37 min 13 sec) 
Heartbeat CPU 0 instructions: 530000002 cycles: 150409081 heartbeat IPC: 1.54534 cumulative IPC: 1.54869 (Simulation time: 0 hr 38 min 48 sec) 
Heartbeat CPU 0 instructions: 540000004 cycles: 156856357 heartbeat IPC: 1.55104 cumulative IPC: 1.54928 (Simulation time: 0 hr 39 min 51 sec) 
Heartbeat CPU 0 instructions: 550000003 cycles: 163311619 heartbeat IPC: 1.54912 cumulative IPC: 1.54925 (Simulation time: 0 hr 40 min 52 sec) 
Heartbeat CPU 0 instructions: 560000001 cycles: 169785465 heartbeat IPC: 1.54468 cumulative IPC: 1.54848 (Simulation time: 0 hr 41 min 54 sec) 
Heartbeat CPU 0 instructions: 570000004 cycles: 176231648 heartbeat IPC: 1.55131 cumulative IPC: 1.54888 (Simulation time: 0 hr 42 min 56 sec) 
Heartbeat CPU 0 instructions: 580000004 cycles: 182684287 heartbeat IPC: 1.54975 cumulative IPC: 1.54899 (Simulation time: 0 hr 43 min 57 sec) 
Heartbeat CPU 0 instructions: 590000001 cycles: 189158071 heartbeat IPC: 1.54469 cumulative IPC: 1.54851 (Simulation time: 0 hr 45 min 0 sec) 
Heartbeat CPU 0 instructions: 600000002 cycles: 195605155 heartbeat IPC: 1.55109 cumulative IPC: 1.54877 (Simulation time: 0 hr 46 min 3 sec) 
Heartbeat CPU 0 instructions: 610000004 cycles: 202059657 heartbeat IPC: 1.54931 cumulative IPC: 1.54882 (Simulation time: 0 hr 47 min 3 sec) 
Heartbeat CPU 0 instructions: 620000004 cycles: 208536053 heartbeat IPC: 1.54407 cumulative IPC: 1.54842 (Simulation time: 0 hr 48 min 8 sec) 
Heartbeat CPU 0 instructions: 630000004 cycles: 214984157 heartbeat IPC: 1.55084 cumulative IPC: 1.54861 (Simulation time: 0 hr 49 min 18 sec) 
Heartbeat CPU 0 instructions: 640000001 cycles: 244708169 heartbeat IPC: 0.336428 cumulative IPC: 1.23163 (Simulation time: 0 hr 53 min 19 sec) 
Heartbeat CPU 0 instructions: 650000000 cycles: 263563343 heartbeat IPC: 0.530358 cumulative IPC: 1.13186 (Simulation time: 0 hr 55 min 52 sec) 
Heartbeat CPU 0 instructions: 660000002 cycles: 281470999 heartbeat IPC: 0.55842 cumulative IPC: 1.0636 (Simulation time: 0 hr 58 min 21 sec) 
Heartbeat CPU 0 instructions: 670000004 cycles: 286615523 heartbeat IPC: 1.94381 cumulative IPC: 1.0927 (Simulation time: 0 hr 59 min 15 sec) 
Heartbeat CPU 0 instructions: 680000004 cycles: 291963067 heartbeat IPC: 1.87002 cumulative IPC: 1.11853 (Simulation time: 1 hr 0 min 11 sec) 
Heartbeat CPU 0 instructions: 690000003 cycles: 296891523 heartbeat IPC: 2.02903 cumulative IPC: 1.14559 (Simulation time: 1 hr 1 min 4 sec) 
Heartbeat CPU 0 instructions: 700000004 cycles: 301941452 heartbeat IPC: 1.98023 cumulative IPC: 1.17025 (Simulation time: 1 hr 1 min 57 sec) 
Heartbeat CPU 0 instructions: 710000000 cycles: 307288457 heartbeat IPC: 1.87021 cumulative IPC: 1.19149 (Simulation time: 1 hr 2 min 51 sec) 
Heartbeat CPU 0 instructions: 720000001 cycles: 312354718 heartbeat IPC: 1.97384 cumulative IPC: 1.21335 (Simulation time: 1 hr 3 min 45 sec) 
Heartbeat CPU 0 instructions: 730000004 cycles: 317360163 heartbeat IPC: 1.99783 cumulative IPC: 1.23442 (Simulation time: 1 hr 4 min 37 sec) 
Heartbeat CPU 0 instructions: 740000000 cycles: 322668881 heartbeat IPC: 1.88369 cumulative IPC: 1.25241 (Simulation time: 1 hr 5 min 45 sec) 
Heartbeat CPU 0 instructions: 750000004 cycles: 327632836 heartbeat IPC: 2.01452 cumulative IPC: 1.27165 (Simulation time: 1 hr 6 min 38 sec) 
Heartbeat CPU 0 instructions: 760000000 cycles: 332614004 heartbeat IPC: 2.00756 cumulative IPC: 1.28983 (Simulation time: 1 hr 7 min 26 sec) 
Heartbeat CPU 0 instructions: 770000002 cycles: 337959645 heartbeat IPC: 1.87068 cumulative IPC: 1.30484 (Simulation time: 1 hr 8 min 18 sec) 
Heartbeat CPU 0 instructions: 780000001 cycles: 342954978 heartbeat IPC: 2.00187 cumulative IPC: 1.32127 (Simulation time: 1 hr 9 min 7 sec) 
Heartbeat CPU 0 instructions: 790000001 cycles: 347922620 heartbeat IPC: 2.01303 cumulative IPC: 1.33712 (Simulation time: 1 hr 9 min 56 sec) 
Heartbeat CPU 0 instructions: 800000003 cycles: 353257992 heartbeat IPC: 1.87428 cumulative IPC: 1.35001 (Simulation time: 1 hr 10 min 48 sec) 
Heartbeat CPU 0 instructions: 810000004 cycles: 358304546 heartbeat IPC: 1.98155 cumulative IPC: 1.36404 (Simulation time: 1 hr 11 min 37 sec) 
Heartbeat CPU 0 instructions: 820000001 cycles: 363280284 heartbeat IPC: 2.00975 cumulative IPC: 1.37787 (Simulation time: 1 hr 12 min 26 sec) 
Heartbeat CPU 0 instructions: 830000004 cycles: 368648559 heartbeat IPC: 1.8628 cumulative IPC: 1.38883 (Simulation time: 1 hr 13 min 19 sec) 
Heartbeat CPU 0 instructions: 840000000 cycles: 373717397 heartbeat IPC: 1.97284 cumulative IPC: 1.40102 (Simulation time: 1 hr 14 min 9 sec) 
Heartbeat CPU 0 instructions: 850000003 cycles: 378613450 heartbeat IPC: 2.04246 cumulative IPC: 1.41371 (Simulation time: 1 hr 14 min 57 sec) 
Heartbeat CPU 0 instructions: 860000004 cycles: 383944301 heartbeat IPC: 1.87587 cumulative IPC: 1.42345 (Simulation time: 1 hr 15 min 48 sec) 
Heartbeat CPU 0 instructions: 870000001 cycles: 389057261 heartbeat IPC: 1.95581 cumulative IPC: 1.434 (Simulation time: 1 hr 16 min 52 sec) 
Heartbeat CPU 0 instructions: 880000002 cycles: 393925180 heartbeat IPC: 2.05427 cumulative IPC: 1.44549 (Simulation time: 1 hr 18 min 11 sec) 
Heartbeat CPU 0 instructions: 890000003 cycles: 399235281 heartbeat IPC: 1.8832 cumulative IPC: 1.45415 (Simulation time: 1 hr 19 min 4 sec) 
Heartbeat CPU 0 instructions: 900000001 cycles: 404393191 heartbeat IPC: 1.93877 cumulative IPC: 1.4633 (Simulation time: 1 hr 19 min 55 sec) 
Heartbeat CPU 0 instructions: 910000000 cycles: 409242395 heartbeat IPC: 2.06219 cumulative IPC: 1.47374 (Simulation time: 1 hr 20 min 46 sec) 
Heartbeat CPU 0 instructions: 920000001 cycles: 414556540 heartbeat IPC: 1.88177 cumulative IPC: 1.48138 (Simulation time: 1 hr 21 min 38 sec) 
Heartbeat CPU 0 instructions: 930000003 cycles: 419735163 heartbeat IPC: 1.93102 cumulative IPC: 1.48945 (Simulation time: 1 hr 22 min 31 sec) 
Heartbeat CPU 0 instructions: 940000000 cycles: 424590195 heartbeat IPC: 2.05972 cumulative IPC: 1.49888 (Simulation time: 1 hr 23 min 22 sec) 
Heartbeat CPU 0 instructions: 950000002 cycles: 429904144 heartbeat IPC: 1.88184 cumulative IPC: 1.50569 (Simulation time: 1 hr 24 min 15 sec) 
Heartbeat CPU 0 instructions: 960000001 cycles: 435089875 heartbeat IPC: 1.92837 cumulative IPC: 1.5129 (Simulation time: 1 hr 25 min 8 sec) 
Heartbeat CPU 0 instructions: 970000001 cycles: 439915167 heartbeat IPC: 2.07241 cumulative IPC: 1.52164 (Simulation time: 1 hr 26 min 0 sec) 
Heartbeat CPU 0 instructions: 980000002 cycles: 445211542 heartbeat IPC: 1.88808 cumulative IPC: 1.52782 (Simulation time: 1 hr 26 min 53 sec) 
Heartbeat CPU 0 instructions: 990000002 cycles: 450395822 heartbeat IPC: 1.92891 cumulative IPC: 1.53433 (Simulation time: 1 hr 27 min 46 sec) 
Heartbeat CPU 0 instructions: 1000000003 cycles: 455228724 heartbeat IPC: 2.06915 cumulative IPC: 1.5423 (Simulation time: 1 hr 28 min 45 sec) 
Heartbeat CPU 0 instructions: 1010000000 cycles: 460505037 heartbeat IPC: 1.89526 cumulative IPC: 1.54795 (Simulation time: 1 hr 30 min 1 sec) 
Heartbeat CPU 0 instructions: 1020000002 cycles: 465720546 heartbeat IPC: 1.91736 cumulative IPC: 1.55371 (Simulation time: 1 hr 31 min 19 sec) 
Heartbeat CPU 0 instructions: 1030000003 cycles: 470538951 heartbeat IPC: 2.07538 cumulative IPC: 1.56111 (Simulation time: 1 hr 32 min 8 sec) 
Heartbeat CPU 0 instructions: 1040000003 cycles: 475785889 heartbeat IPC: 1.90587 cumulative IPC: 1.56636 (Simulation time: 1 hr 32 min 58 sec) 
Heartbeat CPU 0 instructions: 1050000002 cycles: 481006813 heartbeat IPC: 1.91537 cumulative IPC: 1.57157 (Simulation time: 1 hr 33 min 49 sec) 
Heartbeat CPU 0 instructions: 1060000001 cycles: 485846683 heartbeat IPC: 2.06617 cumulative IPC: 1.57831 (Simulation time: 1 hr 34 min 38 sec) 
Heartbeat CPU 0 instructions: 1070000000 cycles: 491087690 heartbeat IPC: 1.90803 cumulative IPC: 1.58311 (Simulation time: 1 hr 35 min 28 sec) 
Heartbeat CPU 0 instructions: 1080000002 cycles: 496319424 heartbeat IPC: 1.91141 cumulative IPC: 1.58782 (Simulation time: 1 hr 36 min 19 sec) 
Heartbeat CPU 0 instructions: 1090000002 cycles: 501137667 heartbeat IPC: 2.07545 cumulative IPC: 1.59416 (Simulation time: 1 hr 37 min 7 sec) 
Heartbeat CPU 0 instructions: 1100000002 cycles: 506361845 heartbeat IPC: 1.91418 cumulative IPC: 1.59862 (Simulation time: 1 hr 37 min 57 sec) 
Heartbeat CPU 0 instructions: 1110000000 cycles: 511663537 heartbeat IPC: 1.88619 cumulative IPC: 1.60262 (Simulation time: 1 hr 38 min 49 sec) 
Heartbeat CPU 0 instructions: 1120000002 cycles: 516482597 heartbeat IPC: 2.07509 cumulative IPC: 1.60853 (Simulation time: 1 hr 39 min 45 sec) 
Heartbeat CPU 0 instructions: 1130000003 cycles: 521705961 heartbeat IPC: 1.91448 cumulative IPC: 1.61262 (Simulation time: 1 hr 40 min 46 sec) 
Heartbeat CPU 0 instructions: 1140000001 cycles: 527045533 heartbeat IPC: 1.87281 cumulative IPC: 1.61613 (Simulation time: 1 hr 41 min 55 sec) 
Heartbeat CPU 0 instructions: 1150000001 cycles: 531861026 heartbeat IPC: 2.07663 cumulative IPC: 1.62166 (Simulation time: 1 hr 42 min 46 sec) 
Heartbeat CPU 0 instructions: 1160000000 cycles: 537068355 heartbeat IPC: 1.92037 cumulative IPC: 1.62549 (Simulation time: 1 hr 43 min 36 sec) 
Heartbeat CPU 0 instructions: 1170000003 cycles: 542366615 heartbeat IPC: 1.88741 cumulative IPC: 1.62887 (Simulation time: 1 hr 44 min 30 sec) 
Heartbeat CPU 0 instructions: 1180000003 cycles: 547173813 heartbeat IPC: 2.08021 cumulative IPC: 1.63408 (Simulation time: 1 hr 45 min 21 sec) 
Heartbeat CPU 0 instructions: 1190000004 cycles: 552352205 heartbeat IPC: 1.9311 cumulative IPC: 1.63773 (Simulation time: 1 hr 46 min 11 sec) 
Heartbeat CPU 0 instructions: 1200000001 cycles: 557646922 heartbeat IPC: 1.88867 cumulative IPC: 1.64085 (Simulation time: 1 hr 47 min 5 sec) 
Heartbeat CPU 0 instructions: 1210000000 cycles: 562480609 heartbeat IPC: 2.06881 cumulative IPC: 1.64564 (Simulation time: 1 hr 47 min 56 sec) 
Heartbeat CPU 0 instructions: 1220000001 cycles: 567654648 heartbeat IPC: 1.93273 cumulative IPC: 1.64904 (Simulation time: 1 hr 48 min 47 sec) 
Heartbeat CPU 0 instructions: 1230000003 cycles: 572986242 heartbeat IPC: 1.87561 cumulative IPC: 1.65178 (Simulation time: 1 hr 49 min 41 sec) 
Heartbeat CPU 0 instructions: 1240000001 cycles: 577841227 heartbeat IPC: 2.05974 cumulative IPC: 1.65621 (Simulation time: 1 hr 50 min 32 sec) 
Heartbeat CPU 0 instructions: 1250000002 cycles: 582973058 heartbeat IPC: 1.94862 cumulative IPC: 1.65953 (Simulation time: 1 hr 51 min 23 sec) 
Heartbeat CPU 0 instructions: 1260000002 cycles: 588278577 heartbeat IPC: 1.88483 cumulative IPC: 1.66214 (Simulation time: 1 hr 52 min 17 sec) 
Heartbeat CPU 0 instructions: 1270000004 cycles: 593141474 heartbeat IPC: 2.05639 cumulative IPC: 1.66629 (Simulation time: 1 hr 53 min 13 sec) 
Heartbeat CPU 0 instructions: 1280000004 cycles: 598252869 heartbeat IPC: 1.95641 cumulative IPC: 1.66947 (Simulation time: 1 hr 54 min 16 sec) 
Heartbeat CPU 0 instructions: 1290000000 cycles: 603582084 heartbeat IPC: 1.87645 cumulative IPC: 1.6718 (Simulation time: 1 hr 55 min 8 sec) 
Heartbeat CPU 0 instructions: 1300000004 cycles: 608482071 heartbeat IPC: 2.04082 cumulative IPC: 1.67559 (Simulation time: 1 hr 55 min 57 sec) 
Heartbeat CPU 0 instructions: 1310000000 cycles: 613571797 heartbeat IPC: 1.96474 cumulative IPC: 1.67864 (Simulation time: 1 hr 56 min 45 sec) 
Heartbeat CPU 0 instructions: 1320000000 cycles: 618899536 heartbeat IPC: 1.87697 cumulative IPC: 1.6808 (Simulation time: 1 hr 57 min 37 sec) 
Heartbeat CPU 0 instructions: 1330000002 cycles: 623893167 heartbeat IPC: 2.00255 cumulative IPC: 1.68406 (Simulation time: 1 hr 58 min 27 sec) 
Heartbeat CPU 0 instructions: 1340000002 cycles: 628941635 heartbeat IPC: 1.9808 cumulative IPC: 1.68707 (Simulation time: 1 hr 59 min 15 sec) 
Heartbeat CPU 0 instructions: 1350000001 cycles: 634232304 heartbeat IPC: 1.89012 cumulative IPC: 1.68921 (Simulation time: 2 hr 0 min 6 sec) 
Heartbeat CPU 0 instructions: 1360000003 cycles: 639187888 heartbeat IPC: 2.01793 cumulative IPC: 1.69241 (Simulation time: 2 hr 0 min 55 sec) 
Heartbeat CPU 0 instructions: 1370000000 cycles: 644213962 heartbeat IPC: 1.98962 cumulative IPC: 1.69532 (Simulation time: 2 hr 1 min 44 sec) 
Heartbeat CPU 0 instructions: 1380000001 cycles: 649525937 heartbeat IPC: 1.88254 cumulative IPC: 1.69724 (Simulation time: 2 hr 2 min 35 sec) 
Heartbeat CPU 0 instructions: 1390000000 cycles: 654498984 heartbeat IPC: 2.01084 cumulative IPC: 1.70022 (Simulation time: 2 hr 3 min 25 sec) 
Heartbeat CPU 0 instructions: 1400000004 cycles: 659495613 heartbeat IPC: 2.00135 cumulative IPC: 1.70307 (Simulation time: 2 hr 4 min 13 sec) 
Heartbeat CPU 0 instructions: 1410000004 cycles: 664814904 heartbeat IPC: 1.87995 cumulative IPC: 1.70483 (Simulation time: 2 hr 5 min 5 sec) 
Heartbeat CPU 0 instructions: 1420000004 cycles: 669811682 heartbeat IPC: 2.00129 cumulative IPC: 1.70758 (Simulation time: 2 hr 5 min 54 sec) 
Heartbeat CPU 0 instructions: 1430000004 cycles: 674765862 heartbeat IPC: 2.0185 cumulative IPC: 1.71041 (Simulation time: 2 hr 6 min 42 sec) 
Heartbeat CPU 0 instructions: 1440000004 cycles: 680070303 heartbeat IPC: 1.88521 cumulative IPC: 1.7121 (Simulation time: 2 hr 7 min 35 sec) 
Heartbeat CPU 0 instructions: 1450000000 cycles: 685104242 heartbeat IPC: 1.98652 cumulative IPC: 1.7146 (Simulation time: 2 hr 8 min 25 sec) 
Heartbeat CPU 0 instructions: 1460000002 cycles: 690077518 heartbeat IPC: 2.01075 cumulative IPC: 1.71723 (Simulation time: 2 hr 9 min 14 sec) 
Heartbeat CPU 0 instructions: 1470000000 cycles: 695392014 heartbeat IPC: 1.88165 cumulative IPC: 1.71878 (Simulation time: 2 hr 10 min 37 sec) 
Heartbeat CPU 0 instructions: 1480000000 cycles: 700453315 heartbeat IPC: 1.97578 cumulative IPC: 1.72106 (Simulation time: 2 hr 11 min 47 sec) 
Heartbeat CPU 0 instructions: 1490000002 cycles: 705352225 heartbeat IPC: 2.04127 cumulative IPC: 1.72379 (Simulation time: 2 hr 12 min 39 sec) 
Heartbeat CPU 0 instructions: 1500000003 cycles: 710677646 heartbeat IPC: 1.87779 cumulative IPC: 1.72521 (Simulation time: 2 hr 13 min 34 sec) 
Heartbeat CPU 0 instructions: 1510000004 cycles: 715716679 heartbeat IPC: 1.98451 cumulative IPC: 1.72744 (Simulation time: 2 hr 14 min 32 sec) 
Heartbeat CPU 0 instructions: 1520000002 cycles: 720578014 heartbeat IPC: 2.05705 cumulative IPC: 1.73016 (Simulation time: 2 hr 15 min 26 sec) 
Heartbeat CPU 0 instructions: 1530000000 cycles: 725868056 heartbeat IPC: 1.89034 cumulative IPC: 1.73159 (Simulation time: 2 hr 16 min 22 sec) 
Heartbeat CPU 0 instructions: 1540000004 cycles: 730953319 heartbeat IPC: 1.96647 cumulative IPC: 1.73358 (Simulation time: 2 hr 17 min 14 sec) 
Heartbeat CPU 0 instructions: 1550000004 cycles: 735811256 heartbeat IPC: 2.05849 cumulative IPC: 1.73619 (Simulation time: 2 hr 18 min 7 sec) 
Heartbeat CPU 0 instructions: 1560000000 cycles: 741087434 heartbeat IPC: 1.89531 cumulative IPC: 1.73756 (Simulation time: 2 hr 19 min 1 sec) 
Heartbeat CPU 0 instructions: 1570000001 cycles: 746212119 heartbeat IPC: 1.95134 cumulative IPC: 1.73934 (Simulation time: 2 hr 20 min 26 sec) 
Heartbeat CPU 0 instructions: 1580000002 cycles: 751023037 heartbeat IPC: 2.07861 cumulative IPC: 1.74198 (Simulation time: 2 hr 21 min 55 sec) 
Heartbeat CPU 0 instructions: 1590000004 cycles: 756323517 heartbeat IPC: 1.88662 cumulative IPC: 1.7432 (Simulation time: 2 hr 22 min 47 sec) 
Heartbeat CPU 0 instructions: 1600000000 cycles: 761498155 heartbeat IPC: 1.9325 cumulative IPC: 1.74476 (Simulation time: 2 hr 23 min 38 sec) 
Heartbeat CPU 0 instructions: 1610000003 cycles: 766285644 heartbeat IPC: 2.08878 cumulative IPC: 1.74735 (Simulation time: 2 hr 24 min 28 sec) 
Heartbeat CPU 0 instructions: 1620000001 cycles: 771533271 heartbeat IPC: 1.90562 cumulative IPC: 1.74865 (Simulation time: 2 hr 25 min 19 sec) 
Heartbeat CPU 0 instructions: 1630000002 cycles: 776732327 heartbeat IPC: 1.92343 cumulative IPC: 1.75005 (Simulation time: 2 hr 26 min 39 sec) 
Heartbeat CPU 0 instructions: 1640000000 cycles: 781520827 heartbeat IPC: 2.08834 cumulative IPC: 1.75254 (Simulation time: 2 hr 27 min 28 sec) 
Heartbeat CPU 0 instructions: 1650000003 cycles: 786750937 heartbeat IPC: 1.91201 cumulative IPC: 1.75382 (Simulation time: 2 hr 28 min 21 sec) 
Heartbeat CPU 0 instructions: 1660000002 cycles: 791934255 heartbeat IPC: 1.92927 cumulative IPC: 1.75519 (Simulation time: 2 hr 29 min 15 sec) 
Heartbeat CPU 0 instructions: 1670000000 cycles: 796733214 heartbeat IPC: 2.08378 cumulative IPC: 1.75756 (Simulation time: 2 hr 30 min 11 sec) 
Heartbeat CPU 0 instructions: 1680000000 cycles: 801974818 heartbeat IPC: 1.90781 cumulative IPC: 1.75873 (Simulation time: 2 hr 31 min 2 sec) 
Heartbeat CPU 0 instructions: 1690000001 cycles: 807232145 heartbeat IPC: 1.90211 cumulative IPC: 1.75985 (Simulation time: 2 hr 31 min 55 sec) 
Heartbeat CPU 0 instructions: 1700000003 cycles: 812011004 heartbeat IPC: 2.09255 cumulative IPC: 1.76218 (Simulation time: 2 hr 32 min 44 sec) 
Heartbeat CPU 0 instructions: 1710000001 cycles: 817207654 heartbeat IPC: 1.92432 cumulative IPC: 1.76341 (Simulation time: 2 hr 33 min 35 sec) 
Heartbeat CPU 0 instructions: 1720000000 cycles: 822420514 heartbeat IPC: 1.91833 cumulative IPC: 1.76458 (Simulation time: 2 hr 34 min 26 sec) 
Heartbeat CPU 0 instructions: 1730000004 cycles: 827212430 heartbeat IPC: 2.08685 cumulative IPC: 1.7668 (Simulation time: 2 hr 35 min 15 sec) 
Heartbeat CPU 0 instructions: 1740000004 cycles: 832405691 heartbeat IPC: 1.92557 cumulative IPC: 1.76797 (Simulation time: 2 hr 36 min 5 sec) 
Heartbeat CPU 0 instructions: 1750000000 cycles: 837644812 heartbeat IPC: 1.90872 cumulative IPC: 1.76902 (Simulation time: 2 hr 36 min 56 sec) 
Heartbeat CPU 0 instructions: 1760000000 cycles: 842440378 heartbeat IPC: 2.08526 cumulative IPC: 1.77115 (Simulation time: 2 hr 37 min 45 sec) 
Heartbeat CPU 0 instructions: 1770000002 cycles: 847623100 heartbeat IPC: 1.92949 cumulative IPC: 1.77229 (Simulation time: 2 hr 38 min 34 sec) 
Heartbeat CPU 0 instructions: 1780000002 cycles: 852902512 heartbeat IPC: 1.89415 cumulative IPC: 1.77319 (Simulation time: 2 hr 39 min 26 sec) 
Heartbeat CPU 0 instructions: 1790000001 cycles: 857692757 heartbeat IPC: 2.08758 cumulative IPC: 1.77526 (Simulation time: 2 hr 40 min 15 sec) 
Heartbeat CPU 0 instructions: 1800000003 cycles: 862869716 heartbeat IPC: 1.93164 cumulative IPC: 1.77636 (Simulation time: 2 hr 41 min 4 sec) 
Heartbeat CPU 0 instructions: 1810000004 cycles: 868210730 heartbeat IPC: 1.8723 cumulative IPC: 1.77706 (Simulation time: 2 hr 41 min 56 sec) 
Heartbeat CPU 0 instructions: 1820000000 cycles: 873046816 heartbeat IPC: 2.06779 cumulative IPC: 1.77895 (Simulation time: 2 hr 42 min 45 sec) 
Heartbeat CPU 0 instructions: 1830000003 cycles: 878222986 heartbeat IPC: 1.93193 cumulative IPC: 1.78001 (Simulation time: 2 hr 43 min 34 sec) 
Heartbeat CPU 0 instructions: 1840000003 cycles: 883514727 heartbeat IPC: 1.88974 cumulative IPC: 1.78079 (Simulation time: 2 hr 44 min 26 sec) 
Heartbeat CPU 0 instructions: 1850000002 cycles: 888319353 heartbeat IPC: 2.08133 cumulative IPC: 1.78269 (Simulation time: 2 hr 45 min 15 sec) 
Heartbeat CPU 0 instructions: 1860000002 cycles: 893484594 heartbeat IPC: 1.93602 cumulative IPC: 1.78373 (Simulation time: 2 hr 46 min 4 sec) 
Heartbeat CPU 0 instructions: 1870000000 cycles: 898787725 heartbeat IPC: 1.88568 cumulative IPC: 1.78444 (Simulation time: 2 hr 46 min 56 sec) 
Heartbeat CPU 0 instructions: 1880000003 cycles: 903633247 heartbeat IPC: 2.06376 cumulative IPC: 1.78619 (Simulation time: 2 hr 47 min 45 sec) 
Heartbeat CPU 0 instructions: 1890000003 cycles: 908775196 heartbeat IPC: 1.94479 cumulative IPC: 1.78724 (Simulation time: 2 hr 48 min 33 sec) 
Heartbeat CPU 0 instructions: 1900000004 cycles: 914079901 heartbeat IPC: 1.88512 cumulative IPC: 1.7879 (Simulation time: 2 hr 49 min 25 sec) 
Heartbeat CPU 0 instructions: 1910000002 cycles: 918965351 heartbeat IPC: 2.04689 cumulative IPC: 1.7895 (Simulation time: 2 hr 50 min 15 sec) 
Heartbeat CPU 0 instructions: 1920000004 cycles: 924077799 heartbeat IPC: 1.95601 cumulative IPC: 1.79058 (Simulation time: 2 hr 51 min 3 sec) 
Heartbeat CPU 0 instructions: 1930000001 cycles: 929388133 heartbeat IPC: 1.88312 cumulative IPC: 1.79119 (Simulation time: 2 hr 51 min 55 sec) 
Heartbeat CPU 0 instructions: 1940000000 cycles: 934262643 heartbeat IPC: 2.05149 cumulative IPC: 1.79277 (Simulation time: 2 hr 52 min 45 sec) 
Heartbeat CPU 0 instructions: 1950000001 cycles: 939343391 heartbeat IPC: 1.96821 cumulative IPC: 1.79388 (Simulation time: 2 hr 53 min 33 sec) 
Heartbeat CPU 0 instructions: 1960000003 cycles: 944631864 heartbeat IPC: 1.89091 cumulative IPC: 1.79451 (Simulation time: 2 hr 54 min 25 sec) 
Heartbeat CPU 0 instructions: 1970000002 cycles: 949568889 heartbeat IPC: 2.02551 cumulative IPC: 1.7959 (Simulation time: 2 hr 55 min 15 sec) 
Heartbeat CPU 0 instructions: 1980000001 cycles: 954626690 heartbeat IPC: 1.97714 cumulative IPC: 1.79701 (Simulation time: 2 hr 56 min 3 sec) 
Heartbeat CPU 0 instructions: 1990000001 cycles: 959939107 heartbeat IPC: 1.88238 cumulative IPC: 1.79756 (Simulation time: 2 hr 56 min 55 sec) 
*** Reached end of trace: traces/434.zeusmp-10B.champsimtrace.xz
Heartbeat CPU 0 instructions: 2000000000 cycles: 964889383 heartbeat IPC: 2.02009 cumulative IPC: 1.79888 (Simulation time: 2 hr 57 min 45 sec) 
Finished CPU 0 instructions: 1500000003 cycles: 833851547 cumulative IPC: 1.79888 (Simulation time: 2 hr 57 min 45 sec) 

ChampSim completed all CPUs

Region of Interest Statistics

CPU 0 cumulative IPC: 1.79888 instructions: 1500000003 cycles: 833851547
cpu0_DTLB TOTAL     ACCESS:  308364444  HIT:  301429517  MISS:    6934927
cpu0_DTLB LOAD      ACCESS:  232850304  HIT:  227711779  MISS:    5138525
cpu0_DTLB RFO       ACCESS:   75514140  HIT:   73717738  MISS:    1796402
cpu0_DTLB PREFETCH  ACCESS:          0  HIT:          0  MISS:          0
cpu0_DTLB WRITEBACK ACCESS:          0  HIT:          0  MISS:          0
cpu0_DTLB TRANSLATION ACCESS:          0  HIT:          0  MISS:          0
cpu0_DTLB PREFETCH  REQUESTED:          0  ISSUED:          0  USEFUL:          0  USELESS:          0
cpu0_DTLB AVERAGE MISS LATENCY: 10.9868 cycles
cpu0_ITLB TOTAL     ACCESS:   16531067  HIT:   16531063  MISS:          4
cpu0_ITLB LOAD      ACCESS:   16531067  HIT:   16531063  MISS:          4
cpu0_ITLB RFO       ACCESS:          0  HIT:          0  MISS:          0
cpu0_ITLB PREFETCH  ACCESS:          0  HIT:          0  MISS:          0
cpu0_ITLB WRITEBACK ACCESS:          0  HIT:          0  MISS:          0
cpu0_ITLB TRANSLATION ACCESS:          0  HIT:          0  MISS:          0
cpu0_ITLB PREFETCH  REQUESTED:          0  ISSUED:          0  USEFUL:          0  USELESS:          0
cpu0_ITLB AVERAGE MISS LATENCY: 314.25 cycles
cpu0_L1I TOTAL     ACCESS:    7392040  HIT:    7391800  MISS:        240
cpu0_L1I LOAD      ACCESS:    7392040  HIT:    7391800  MISS:        240
cpu0_L1I RFO       ACCESS:          0  HIT:          0  MISS:          0
cpu0_L1I PREFETCH  ACCESS:          0  HIT:          0  MISS:          0
cpu0_L1I WRITEBACK ACCESS:          0  HIT:          0  MISS:          0
cpu0_L1I TRANSLATION ACCESS:          0  HIT:          0  MISS:          0
cpu0_L1I PREFETCH  REQUESTED:          0  ISSUED:          0  USEFUL:          0  USELESS:          0
cpu0_L1I AVERAGE MISS LATENCY: 307.017 cycles
cpu0_STLB TOTAL     ACCESS:    6934931  HIT:    6872638  MISS:      62293
cpu0_STLB LOAD      ACCESS:    5138529  HIT:    5087613  MISS:      50916
cpu0_STLB RFO       ACCESS:    1796402  HIT:    1785025  MISS:      11377
cpu0_STLB PREFETCH  ACCESS:          0  HIT:          0  MISS:          0
cpu0_STLB WRITEBACK ACCESS:          0  HIT:          0  MISS:          0
cpu0_STLB TRANSLATION ACCESS:          0  HIT:          0  MISS:          0
cpu0_STLB PREFETCH  REQUESTED:          0  ISSUED:          0  USEFUL:          0  USELESS:          0
cpu0_STLB AVERAGE MISS LATENCY: 212.83 cycles
cpu0_L1D TOTAL     ACCESS:  329522301  HIT:  303517030  MISS:   26005271
cpu0_L1D LOAD      ACCESS:  228875579  HIT:  211590876  MISS:   17284703
cpu0_L1D RFO       ACCESS:  100589026  HIT:   91875493  MISS:    8713533
cpu0_L1D PREFETCH  ACCESS:          0  HIT:          0  MISS:          0
cpu0_L1D WRITEBACK ACCESS:          0  HIT:          0  MISS:          0
cpu0_L1D TRANSLATION ACCESS:      57696  HIT:      50661  MISS:       7035
cpu0_L1D PREFETCH  REQUESTED:          0  ISSUED:          0  USEFUL:          0  USELESS:          0
cpu0_L1D AVERAGE MISS LATENCY: 55.4301 cycles
cpu0_L2C TOTAL     ACCESS:   36669433  HIT:   30765975  MISS:    5903458
cpu0_L2C LOAD      ACCESS:   17281232  HIT:   13003695  MISS:    4277537
cpu0_L2C RFO       ACCESS:    8557776  HIT:    6972802  MISS:    1584974
cpu0_L2C PREFETCH  ACCESS:          0  HIT:          0  MISS:          0
cpu0_L2C WRITEBACK ACCESS:   10823390  HIT:   10783545  MISS:      39845
cpu0_L2C TRANSLATION ACCESS:       7035  HIT:       5933  MISS:       1102
cpu0_L2C PREFETCH  REQUESTED:          0  ISSUED:          0  USEFUL:          0  USELESS:          0
cpu0_L2C AVERAGE MISS LATENCY: 194.952 cycles
LLC TOTAL     ACCESS:    8037136  HIT:    5151185  MISS:    2885951
LLC LOAD      ACCESS:    4277537  HIT:    2136224  MISS:    2141313
LLC RFO       ACCESS:    1584967  HIT:     846393  MISS:     738574
LLC PREFETCH  ACCESS:          0  HIT:          0  MISS:          0
LLC WRITEBACK ACCESS:    2173530  HIT:    2167754  MISS:       5776
LLC TRANSLATION ACCESS:       1102  HIT:        814  MISS:        288
LLC PREFETCH  REQUESTED:          0  ISSUED:          0  USEFUL:          0  USELESS:          0
LLC AVERAGE MISS LATENCY: 356.123 cycles
~~~~~~~~~~Reuse Distance Profiler output~~~~~~~~~~
0	5314368	3565552
1	13884304	10866096
2	21394384	16052944
3	20855696	16783920
4	18551184	15649312
5	21282432	16777472
6	17323008	13153440
7	16537328	13303136
8	24644464	17772544
9	27016128	20345056
10	23483968	18073328
11	17443024	14212848
12	22454480	18024896
13	17922368	11540880
14	18260688	9211120
15	17145232	6684160
16	13422224	5708400
17	9264144	5350912
18	13825584	6869264
19	10357024	6389488
20	12482576	9708928
21	5147504	2639600
22	3528752	2292336
23	1464720	1033296
24	1195936	847888
25	843984	611200
26	492256	301744
27	292368	223008
28	266592	179472
29	172848	132080
30	193200	163472
31	162256	120304
32	141056	109184
33	114368	87712
34	182688	159328
35	176192	150048
36	124224	86768
37	128064	111264
38	248704	220464
39	136848	120928
40	79312	61088
41	106656	79280
42	121904	103072
43	208880	194688
44	364384	353776
45	465392	454880
46	494064	483872
47	188240	174400
48	87520	70928
49	58128	44512
50	55856	39744
51	47424	35584
52	44016	28192
53	34816	24944
54	37984	27952
55	27520	18496
56	19584	12240
57	37104	19632
58	29168	11968
59	26240	6816
60	27232	3968
61	10896	4944
62	11184	7472
63	11648	2608
64	26272	5504
66	24304	7584
68	20736	2720
70	15232	4896
72	13648	1376
74	15504	1328
76	14416	1552
78	15664	1504
80	6080	1440
82	8064	1168
84	5696	960
86	7712	1088
88	3696	656
90	8624	4976
92	2624	560
94	1872	288
96	12480	624
98	5552	320
100	7072	304
102	3776	112
104	1024	160
106	1152	304
108	4688	3936
110	5600	432
112	3840	400
114	1152	720
116	1712	960
118	2112	1840
120	2432	2368
122	5168	3472
124	7744	4880
126	10048	6656
128	23328	20320
132	34208	33328
136	56528	56448
140	76672	75152
144	80400	72432
148	46816	46368
152	35216	34448
156	22688	22048
160	15152	14832
164	13472	11552
168	6832	3648
172	4736	4400
176	8032	7952
180	2816	1952
184	3696	1472
188	1792	720
192	1408	368
196	1120	480
200	640	512
204	448	208
208	400	240
212	688	544
216	416	304
220	208	80
224	592	400
228	448	384
232	5520	5376
236	4096	4016
240	256	128
244	336	208
248	208	208
252	192	144
256	976	896
264	10352	10304
272	1136	1088
280	752	736
288	640	640
296	880	864
304	768	768
312	3200	3200
320	24992	24992
328	31328	31328
336	23456	22816
344	22912	22336
352	47552	44368
360	64064	54048
368	26784	22848
376	16784	15104
384	20528	19184
392	20576	18064
400	35120	27984
408	38848	32480
416	40096	35664
424	26720	22512
432	18832	14896
440	19360	17120
448	31808	30128
456	23024	21536
464	16592	14704
472	19408	18112
480	22496	21072
488	20336	18464
496	13488	12960
504	19488	19200
512	52416	45120
528	35696	33248
544	59456	59376
560	28752	28672
576	46080	46016
592	58144	57888
608	37584	36048
624	48512	48192
640	35344	34800
656	80720	72816
672	95136	89888
688	166432	166336
704	138320	138208
720	69536	67664
736	63088	61552
752	61984	59616
768	51776	42496
784	66016	46256
800	72736	62048
816	60608	46288
832	75600	55920
848	37232	26080
864	52736	46768
880	51392	40064
896	62496	50816
912	51280	42256
928	35056	30368
944	54672	43744
960	80608	69616
976	114720	106432
992	130432	124528
1008	128448	112848
1024	190960	163520
1056	140080	112704
1088	202608	178096
1120	238992	207696
1152	367632	322592
1184	374848	351216
1216	334336	315728
1248	359152	332192
1280	269088	250160
1312	275568	250144
1344	211824	184240
1376	240480	181088
1408	229584	202560
1440	162064	133936
1472	185600	165072
1504	265008	183328
1536	450928	383648
1568	486288	372704
1600	367488	282848
1632	287856	192640
1664	186112	95216
1696	271360	126912
1728	314960	185984
1760	243600	124976
1792	282816	146768
1824	310240	102576
1856	356240	134304
1888	298432	92416
1920	304128	119824
1952	387584	205776
1984	372176	149184
2016	345856	212624
2048	468704	261184
2112	396480	265696
2176	381920	289472
2240	432368	344032
2304	463424	352640
2368	590704	283632
2432	528240	201616
2496	595648	168736
2560	379104	154848
2624	921744	174384
2688	323712	81184
2752	272528	64288
2816	228528	62672
2880	115216	47568
2944	119760	64880
3008	68832	27520
3072	68192	14480
3136	102288	15712
3200	103440	17680
3264	126736	25888
3328	110736	22896
3392	147840	62048
3456	197840	87296
3520	206768	103888
3584	197776	123856
3648	206640	145856
3712	178960	122912
3776	170192	100272
3840	266768	159280
3904	351040	190352
3968	774112	237936
4032	1663664	1372192
4096	6751120	4236416
4224	190944	151520
4352	107760	44928
4480	49904	12656
4608	118480	24496
4736	632816	478880
4864	2234032	129328
4992	227312	1264
5120	201040	1968
5248	128672	12192
5376	79392	18208
5504	289936	42896
5632	339664	55968
5760	825280	488368
5888	1128144	740080
6016	695088	323392
6144	412016	135280
6272	567104	325200
6400	1063792	920608
6528	431616	258032
6656	366176	87936
6784	282704	16960
6912	260160	23568
7040	248656	17808
7168	208432	12096
7296	187904	1280
7424	188080	192
7552	201680	9968
7680	173104	4592
7808	1057808	823408
7936	8007184	5853440
8064	452288	280640
8192	1460592	1353136
8448	1968	1216
8704	4374656	3958336
8960	1701072	1334496
9216	492464	293840
9472	0	0
9728	736	0
9984	1440	0
10240	1472	192
10496	1248	112
10752	1376	16
11008	1456	32
11264	1280	80
11520	64	16
11776	176	176
12032	16	0
12288	16	16
12544	16	16
12800	16	16
13056	32	32
13312	48	48
13568	16	0
13824	80	0
14080	32	32
14336	32	32
14592	80	80
14848	16	16
15104	32	32
15360	0	0
15616	16	16
15872	64	64
16128	64	64
16384	48	48
16896	0	0
17408	80	80
17920	48	48
18432	2560	2560
18944	240	240
19456	272	272
19968	240	240
20480	96	48
20992	288	288
21504	48	48
22016	96	96
22528	256	128
23040	304	304
23552	0	0
24064	48	32
24576	0	0
25088	160	160
25600	96	96
26112	64	64
26624	160	160
27136	272	224
27648	112	32
28160	0	0
28672	176	112
29184	0	0
29696	48	48
30208	128	128
30720	48	48
31232	224	192
31744	160	112
32256	0	0
32768	224	160
33792	192	192
34816	416	416
35840	272	256
36864	224	192
37888	160	160
38912	368	368
39936	352	272
40960	240	160
41984	416	384
43008	352	304
44032	368	352
45056	128	112
46080	448	448
47104	320	256
48128	384	384
49152	544	400
50176	64	64
51200	272	272
52224	528	416
53248	288	256
54272	272	256
55296	320	240
56320	512	512
57344	192	192
58368	496	400
59392	144	112
60416	624	528
61440	400	336
62464	320	288
63488	192	144
64512	512	496
65536	816	704
67584	944	752
69632	928	848
71680	720	608
73728	976	864
75776	1296	1136
77824	720	672
79872	960	816
81920	928	848
83968	912	784
86016	656	560
88064	720	592
90112	960	816
92160	592	544
94208	960	736
96256	768	768
98304	1072	992
100352	1200	1136
102400	896	688
104448	1312	1120
106496	880	736
108544	1152	1104
110592	1184	880
112640	1024	864
114688	752	704
116736	1648	1392
118784	2176	1744
120832	2064	1488
122880	2272	1792
124928	1504	1232
126976	2176	1808
129024	2064	1600
131072	4144	3376
135168	4240	3520
139264	3776	3120
143360	4288	3456
147456	4448	3280
151552	4416	3632
155648	4592	3504
159744	4576	3808
163840	5008	4032
167936	4736	3728
172032	4608	3648
176128	4608	3648
180224	4960	4112
184320	4624	3648
188416	3168	2832
192512	3776	3088
196608	3120	2736
200704	3888	3328
204800	3472	3088
208896	3072	2464
212992	3872	3488
217088	3808	3360
221184	3600	3136
225280	4032	3536
229376	3600	3024
233472	3680	3200
237568	3904	3136
241664	4208	3840
245760	4144	3616
249856	3696	3152
253952	4272	3696
258048	3984	3552
262144	8848	7600
270336	8992	7664
278528	8608	7344
286720	8688	7600
294912	9584	8192
303104	9968	8416
311296	9600	8048
319488	10176	8672
327680	10208	8736
335872	10480	8992
344064	11168	9680
352256	10720	8960
360448	10096	8576
368640	11504	9888
376832	11648	9888
385024	12176	10160
393216	12416	10560
401408	12368	10592
409600	12720	10624
417792	13344	11552
425984	13344	11104
434176	13184	11296
442368	13744	11840
450560	13408	11456
458752	14752	12912
466944	14192	11904
475136	14688	12752
483328	14272	12144
491520	15168	12864
499712	18208	14688
507904	37360	25440
516096	71952	43808
524288	79328	38608
540672	85712	38768
557056	64384	39024
573440	64688	38432
589824	64464	37344
606208	72864	40320
622592	71936	37792
638976	90032	53744
655360	65456	38736
671744	65376	38544
688128	64336	38384
704512	67712	40240
720896	65552	37600
737280	66400	39744
753664	64736	37600
770048	67936	39984
786432	67936	40752
802816	65520	39216
819200	64608	38112
835584	65840	39424
851968	68048	40272
868352	65696	39504
884736	67424	40880
901120	67840	40688
917504	68624	42544
933888	68384	41248
950272	66704	38752
966656	63344	36208
983040	54896	34096
999424	85872	56464
1015808	42320	27360
1032192	49952	28304
1048576	86288	56608
1081344	84656	55424
1114112	85920	57264
1146880	89104	55600
1179648	86720	52704
1212416	60240	49776
1245184	55968	48176
1277952	54736	46960
1310720	51376	44288
1343488	49568	42784
1376256	47728	41888
1409024	46864	41248
1441792	42288	37920
1474560	40192	36176
1507328	37808	34192
1540096	38048	34576
1572864	37136	34672
1605632	28896	26640
1638400	27408	25952
1671168	24048	23088
1703936	22752	22016
1736704	23440	23056
1769472	31664	31664
1802240	16000	16000
1835008	14240	14240
1867776	14384	14384
1900544	13504	13504
1933312	11616	11616
1966080	11040	11024
1998848	9936	9904
2031616	8784	8768
2064384	7984	7984
2097152	31344	30144
2162688	31712	31712
2228224	30816	30816
2293760	30016	30016
2359296	27904	27904
2424832	27152	27152
2490368	25968	25968
2555904	24656	24656
2621440	22880	22880
2686976	20672	20672
2752512	6304	6256
2818048	688	688
2883584	6160	6160
2949120	7152	7152
3014656	752	752
3080192	960	880
3145728	928	560
3211264	2064	1808
3276800	1648	1360
3342336	480	128
3407872	240	32
3473408	480	112
3538944	368	48
3604480	336	64
3670016	400	176
3735552	400	112
3801088	624	80
3866624	960	112
3932160	944	112
3997696	880	128
4063232	896	96
4128768	688	112
4194304	1280	272
4325376	1040	272
4456448	336	336
4587520	608	608
4718592	336	336
4849664	320	320
4980736	272	272
5111808	416	384
5242880	448	448
5373952	496	480
5505024	288	288
5636096	432	432
5767168	240	240
5898240	288	288
6029312	352	352
6160384	544	544
6291456	336	336
6422528	1392	640
6553600	880	272
6684672	832	336
6815744	944	480
6946816	928	272
7077888	672	256
7208960	880	240
7340032	720	320
7471104	240	240
7602176	208	208
7733248	496	496
7864320	512	512
7995392	240	240
8126464	480	480
8257536	336	240
8388608	768	688
8650752	544	544
8912896	576	576
9175040	928	928
9437184	960	960
9699328	1920	736
9961472	2160	912
10223616	1536	544
10485760	1968	848
10747904	592	592
11010048	1008	1008
11272192	800	800
11534336	768	720
11796480	432	432
12058624	656	656
12320768	592	592
12582912	1136	1136
12845056	1344	848
13107200	1952	784
13369344	1504	528
13631488	1664	528
13893632	1040	432
14155776	1104	1104
14417920	736	736
14680064	912	864
14942208	624	624
15204352	528	528
15466496	640	640
15728640	1104	1104
15990784	752	752
16252928	1920	832
16515072	1696	608
16777216	3008	1312
17301504	2112	1904
17825792	1296	1216
18350080	1168	1168
18874368	1664	1664
19398656	2976	1440
19922944	3248	1200
20447232	2560	1712
20971520	1536	1472
21495808	880	880
22020096	1696	1696
22544384	2416	1376
23068672	3328	1248
23592960	2912	1488
24117248	1600	1536
24641536	1056	1056
25165824	1616	1616
25690112	1888	1568
26214400	3616	1248
26738688	3440	1568
27262976	1952	1888
27787264	1072	1072
28311552	1520	1520
28835840	1600	1536
29360128	2736	1072
29884416	3584	1296
30408704	1936	1600
30932992	1232	1120
31457280	1072	1072
31981568	1840	1840
32505856	2672	1456
33030144	2624	800
33554432	4544	3424
34603008	2544	2448
35651584	5760	3024
36700160	5072	3376
37748736	2880	2800
38797312	5296	3056
39845888	4576	2320
40894464	3040	2960
41943040	4832	3088
42991616	6192	3328
44040192	3008	3008
45088768	4176	3104
46137344	6480	3008
47185920	2512	2464
48234496	3760	3408
49283072	6880	3008
50331648	2720	2640
51380224	3136	3136
52428800	6368	2496
53477376	3936	3472
54525952	2816	2816
55574528	6224	2944
56623104	4368	3392
57671680	2576	2480
58720256	6192	3440
59768832	4576	2944
60817408	2960	2896
61865984	5328	3280
62914560	4688	2448
63963136	3472	3456
65011712	4816	3168
66060288	5920	2896
67108864	7088	5968
69206016	9584	6272
71303168	10416	5920
73400320	6080	6000
75497472	10416	6352
77594624	10176	6720
79691776	7232	6224
81788928	11040	6960
83886080	8256	6192
85983232	8928	6608
88080384	10944	6352
90177536	7520	6624
92274688	10064	6912
94371840	10640	6752
96468992	6960	6912
98566144	11104	6896
100663296	9632	6304
102760448	8000	7072
104857600	10928	6544
106954752	8992	6720
109051904	9744	7408
111149056	11296	7136
113246208	8464	7264
115343360	10160	6800
117440512	11104	7008
119537664	7680	7632
121634816	11760	7376
123731968	10368	6720
125829120	8048	7072
127926272	11344	7056
130023424	9696	7552
132120576	9824	7792
134217728	20912	15168
138412032	22928	15056
142606336	20752	16528
146800640	13808	9552
150994944	11408	5392
155189248	11248	4960
159383552	9664	5328
163577856	9600	5504
167772160	13392	5296
171966464	10304	5424
176160768	9568	5440
180355072	10528	5296
184549376	12592	4976
188743680	10032	5600
192937984	9312	5216
197132288	11824	5024
201326592	11488	5376
205520896	10016	5616
209715200	8976	4880
213909504	13296	5440
218103808	9936	5376
222298112	9408	5232
226492416	10848	5360
230686720	12320	5456
234881024	9376	5328
239075328	9152	4864
243269632	12016	5152
247463936	11104	5024
251658240	9952	5472
255852544	9648	5600
260046848	12912	4976
264241152	9216	5088
268435456	20240	10368
276824064	22224	11008
285212672	21664	10544
293601280	16320	10624
301989888	9872	9872
310378496	9712	9712
318767104	8816	8816
327155712	8048	8048
335544320	7424	7424
343932928	7200	7200
352321536	6464	6464
360710144	5776	5776
369098752	5168	5168
377487360	4864	4864
385875968	4224	4224
394264576	3264	3264
402653184	3200	3200
411041792	2384	2384
419430400	1648	1648
427819008	1136	1136
436207616	528	528
444596224	96	96
452984832	0	0
461373440	0	0
469762048	0	0
478150656	0	0
486539264	0	0
494927872	0	0
503316480	0	0
511705088	0	0
520093696	0	0
528482304	0	0
536870912	0	0
553648128	0	0
570425344	0	0
587202560	0	0
603979776	0	0
620756992	0	0
637534208	0	0
654311424	0	0
671088640	0	0
687865856	0	0
704643072	0	0
721420288	0	0
738197504	0	0
754974720	0	0
771751936	0	0
788529152	0	0
805306368	0	0
822083584	0	0
838860800	0	0
855638016	0	0
872415232	0	0
889192448	0	0
905969664	0	0
922746880	0	0
939524096	0	0
956301312	0	0
973078528	0	0
989855744	0	0
1006632960	0	0
1023410176	0	0
1040187392	0	0
1056964608	0	0
1073741824	0	0
1107296256	0	0
1140850688	0	0
1174405120	0	0
1207959552	0	0
1241513984	0	0
1275068416	0	0
1308622848	0	0
1342177280	0	0
1375731712	0	0
1409286144	0	0
1442840576	0	0
1476395008	0	0
1509949440	0	0
1543503872	0	0
1577058304	0	0
1610612736	0	0
1644167168	0	0
1677721600	0	0
1711276032	0	0
1744830464	0	0
1778384896	0	0
1811939328	0	0
1845493760	0	0
1879048192	0	0
1912602624	0	0
1946157056	0	0
1979711488	0	0
2013265920	0	0
2046820352	0	0
2080374784	0	0
2113929216	0	0
2147483648	0	0
2214592512	0	0
2281701376	0	0
2348810240	0	0
2415919104	0	0
2483027968	0	0
2550136832	0	0
2617245696	0	0
2684354560	0	0
2751463424	0	0
2818572288	0	0
2885681152	0	0
2952790016	0	0
3019898880	0	0
3087007744	0	0
3154116608	0	0
3221225472	0	0
3288334336	0	0
3355443200	0	0
3422552064	0	0
3489660928	0	0
3556769792	0	0
3623878656	0	0
3690987520	0	0
3758096384	0	0
3825205248	0	0
3892314112	0	0
3959422976	0	0
4026531840	0	0
4093640704	0	0
4160749568	0	0
4227858432	0	0
~~~~~~~~~~Reuse Distance Profiler output end~~~~~~~~~~

DRAM Statistics
 CHANNEL 0
 RQ ROW_BUFFER_HIT:     162112  ROW_BUFFER_MISS:    2717973
 DBUS AVG_CONGESTED_CYCLE:    3.95546
 WQ ROW_BUFFER_HIT:     104540  ROW_BUFFER_MISS:     785274  FULL:          0


CPU 0 Branch Prediction Accuracy: 99.459% MPKI: 0.309859 Average ROB Occupancy at Mispredict: 238.304
Branch type MPKI
BRANCH_DIRECT_JUMP: 2.13333e-05
BRANCH_INDIRECT: 0
BRANCH_CONDITIONAL: 0.309836
BRANCH_DIRECT_CALL: 6.66667e-07
BRANCH_INDIRECT_CALL: 0
BRANCH_RETURN: 6.66667e-07

