
*** ChampSim Multicore Out-of-Order Simulator ***

Warmup Instructions: 500000000
Simulation Instructions: 1500000000
Number of CPUs: 1
Off-chip DRAM Size: 4 GiB Channels: 1 Width: 64-bit Data Rate: 3200 MT/s

VirtualMemory physical capacity: 8588881920 num_ppages: 2096895
VirtualMemory page size: 4096 log2_page_size: 12

CPU 0 runs traces/435.gromacs-134B.champsimtrace.xz
CPU 0 Bimodal branch predictor
Basic BTB sets: 1024 ways: 8 indirect buffer size: 4096 RAS size: 64
Initializing LRU.
Initializing LRU.
Initializing LRU.
Initializing LRU.
Initializing rdLRU.
Initializing LRU.
Initializing LRU.
Heartbeat CPU 0 instructions: 10000003 cycles: 2650820 heartbeat IPC: 3.77242 cumulative IPC: 3.77242 (Simulation time: 0 hr 1 min 0 sec) 
Heartbeat CPU 0 instructions: 20000002 cycles: 5369840 heartbeat IPC: 3.6778 cumulative IPC: 3.72451 (Simulation time: 0 hr 1 min 45 sec) 
Heartbeat CPU 0 instructions: 30000003 cycles: 8003131 heartbeat IPC: 3.79753 cumulative IPC: 3.74853 (Simulation time: 0 hr 2 min 23 sec) 
Heartbeat CPU 0 instructions: 40000003 cycles: 10704253 heartbeat IPC: 3.70217 cumulative IPC: 3.73683 (Simulation time: 0 hr 3 min 25 sec) 
Heartbeat CPU 0 instructions: 50000001 cycles: 13250614 heartbeat IPC: 3.92717 cumulative IPC: 3.77341 (Simulation time: 0 hr 4 min 24 sec) 
Heartbeat CPU 0 instructions: 60000001 cycles: 15750614 heartbeat IPC: 4 cumulative IPC: 3.80938 (Simulation time: 0 hr 5 min 18 sec) 
Heartbeat CPU 0 instructions: 70000001 cycles: 18250614 heartbeat IPC: 4 cumulative IPC: 3.83549 (Simulation time: 0 hr 6 min 19 sec) 
Heartbeat CPU 0 instructions: 80000001 cycles: 20750614 heartbeat IPC: 4 cumulative IPC: 3.85531 (Simulation time: 0 hr 7 min 21 sec) 
Heartbeat CPU 0 instructions: 90000001 cycles: 23250614 heartbeat IPC: 4 cumulative IPC: 3.87087 (Simulation time: 0 hr 8 min 22 sec) 
Heartbeat CPU 0 instructions: 100000001 cycles: 25750614 heartbeat IPC: 4 cumulative IPC: 3.8834 (Simulation time: 0 hr 9 min 24 sec) 
Heartbeat CPU 0 instructions: 110000001 cycles: 28250614 heartbeat IPC: 4 cumulative IPC: 3.89372 (Simulation time: 0 hr 10 min 25 sec) 
Heartbeat CPU 0 instructions: 120000001 cycles: 30750614 heartbeat IPC: 4 cumulative IPC: 3.90236 (Simulation time: 0 hr 11 min 3 sec) 
Heartbeat CPU 0 instructions: 130000001 cycles: 33250614 heartbeat IPC: 4 cumulative IPC: 3.9097 (Simulation time: 0 hr 11 min 48 sec) 
Heartbeat CPU 0 instructions: 140000001 cycles: 35750614 heartbeat IPC: 4 cumulative IPC: 3.91602 (Simulation time: 0 hr 12 min 26 sec) 
Heartbeat CPU 0 instructions: 150000001 cycles: 38250614 heartbeat IPC: 4 cumulative IPC: 3.92151 (Simulation time: 0 hr 13 min 0 sec) 
Heartbeat CPU 0 instructions: 160000001 cycles: 40750614 heartbeat IPC: 4 cumulative IPC: 3.92632 (Simulation time: 0 hr 13 min 35 sec) 
Heartbeat CPU 0 instructions: 170000001 cycles: 43250614 heartbeat IPC: 4 cumulative IPC: 3.93058 (Simulation time: 0 hr 14 min 9 sec) 
Heartbeat CPU 0 instructions: 180000001 cycles: 45750614 heartbeat IPC: 4 cumulative IPC: 3.93437 (Simulation time: 0 hr 14 min 43 sec) 
Heartbeat CPU 0 instructions: 190000001 cycles: 48250614 heartbeat IPC: 4 cumulative IPC: 3.93777 (Simulation time: 0 hr 15 min 18 sec) 
Heartbeat CPU 0 instructions: 200000001 cycles: 50750614 heartbeat IPC: 4 cumulative IPC: 3.94084 (Simulation time: 0 hr 15 min 52 sec) 
Heartbeat CPU 0 instructions: 210000001 cycles: 53250614 heartbeat IPC: 4 cumulative IPC: 3.94362 (Simulation time: 0 hr 16 min 27 sec) 
Heartbeat CPU 0 instructions: 220000001 cycles: 55883788 heartbeat IPC: 3.7977 cumulative IPC: 3.93674 (Simulation time: 0 hr 17 min 24 sec) 
Heartbeat CPU 0 instructions: 230000000 cycles: 58481516 heartbeat IPC: 3.84952 cumulative IPC: 3.93287 (Simulation time: 0 hr 18 min 24 sec) 
Heartbeat CPU 0 instructions: 240000002 cycles: 61354238 heartbeat IPC: 3.48102 cumulative IPC: 3.91171 (Simulation time: 0 hr 19 min 31 sec) 
Heartbeat CPU 0 instructions: 250000003 cycles: 64011498 heartbeat IPC: 3.76328 cumulative IPC: 3.90555 (Simulation time: 0 hr 20 min 31 sec) 
Heartbeat CPU 0 instructions: 260000003 cycles: 66511498 heartbeat IPC: 4 cumulative IPC: 3.9091 (Simulation time: 0 hr 21 min 20 sec) 
Heartbeat CPU 0 instructions: 270000003 cycles: 69011498 heartbeat IPC: 4 cumulative IPC: 3.91239 (Simulation time: 0 hr 22 min 0 sec) 
Heartbeat CPU 0 instructions: 280000003 cycles: 71511498 heartbeat IPC: 4 cumulative IPC: 3.91545 (Simulation time: 0 hr 23 min 0 sec) 
Heartbeat CPU 0 instructions: 290000003 cycles: 74011498 heartbeat IPC: 4 cumulative IPC: 3.91831 (Simulation time: 0 hr 24 min 0 sec) 
Heartbeat CPU 0 instructions: 300000003 cycles: 76511498 heartbeat IPC: 4 cumulative IPC: 3.92098 (Simulation time: 0 hr 24 min 38 sec) 
Heartbeat CPU 0 instructions: 310000003 cycles: 79011498 heartbeat IPC: 4 cumulative IPC: 3.92348 (Simulation time: 0 hr 25 min 12 sec) 
Heartbeat CPU 0 instructions: 320000003 cycles: 81511498 heartbeat IPC: 4 cumulative IPC: 3.92583 (Simulation time: 0 hr 25 min 46 sec) 
Heartbeat CPU 0 instructions: 330000003 cycles: 84011498 heartbeat IPC: 4 cumulative IPC: 3.92803 (Simulation time: 0 hr 26 min 20 sec) 
Heartbeat CPU 0 instructions: 340000003 cycles: 86511498 heartbeat IPC: 4 cumulative IPC: 3.93011 (Simulation time: 0 hr 26 min 56 sec) 
Heartbeat CPU 0 instructions: 350000003 cycles: 89011498 heartbeat IPC: 4 cumulative IPC: 3.93208 (Simulation time: 0 hr 27 min 30 sec) 
Heartbeat CPU 0 instructions: 360000003 cycles: 91511498 heartbeat IPC: 4 cumulative IPC: 3.93393 (Simulation time: 0 hr 28 min 6 sec) 
Heartbeat CPU 0 instructions: 370000003 cycles: 94011498 heartbeat IPC: 4 cumulative IPC: 3.93569 (Simulation time: 0 hr 28 min 42 sec) 
Heartbeat CPU 0 instructions: 380000003 cycles: 96511498 heartbeat IPC: 4 cumulative IPC: 3.93735 (Simulation time: 0 hr 29 min 17 sec) 
Heartbeat CPU 0 instructions: 390000003 cycles: 99011498 heartbeat IPC: 4 cumulative IPC: 3.93894 (Simulation time: 0 hr 29 min 52 sec) 
Heartbeat CPU 0 instructions: 400000003 cycles: 101511498 heartbeat IPC: 4 cumulative IPC: 3.94044 (Simulation time: 0 hr 30 min 27 sec) 
Heartbeat CPU 0 instructions: 410000003 cycles: 104011498 heartbeat IPC: 4 cumulative IPC: 3.94187 (Simulation time: 0 hr 31 min 1 sec) 
Heartbeat CPU 0 instructions: 420000000 cycles: 106644717 heartbeat IPC: 3.79763 cumulative IPC: 3.93831 (Simulation time: 0 hr 31 min 39 sec) 
Heartbeat CPU 0 instructions: 430000000 cycles: 109246142 heartbeat IPC: 3.84405 cumulative IPC: 3.93607 (Simulation time: 0 hr 32 min 20 sec) 
Heartbeat CPU 0 instructions: 440000003 cycles: 112226764 heartbeat IPC: 3.35501 cumulative IPC: 3.92063 (Simulation time: 0 hr 33 min 28 sec) 
Heartbeat CPU 0 instructions: 450000002 cycles: 114773081 heartbeat IPC: 3.92724 cumulative IPC: 3.92078 (Simulation time: 0 hr 34 min 15 sec) 
Heartbeat CPU 0 instructions: 460000002 cycles: 117273081 heartbeat IPC: 4 cumulative IPC: 3.92247 (Simulation time: 0 hr 34 min 47 sec) 
Heartbeat CPU 0 instructions: 470000002 cycles: 119773081 heartbeat IPC: 4 cumulative IPC: 3.92409 (Simulation time: 0 hr 35 min 38 sec) 
Heartbeat CPU 0 instructions: 480000002 cycles: 122273081 heartbeat IPC: 4 cumulative IPC: 3.92564 (Simulation time: 0 hr 36 min 23 sec) 
Heartbeat CPU 0 instructions: 490000002 cycles: 124773081 heartbeat IPC: 4 cumulative IPC: 3.92713 (Simulation time: 0 hr 36 min 58 sec) 
Heartbeat CPU 0 instructions: 500000002 cycles: 127273081 heartbeat IPC: 4 cumulative IPC: 3.92856 (Simulation time: 0 hr 37 min 32 sec) 

Warmup complete CPU 0 instructions: 500000002 cycles: 127273081 (Simulation time: 0 hr 37 min 32 sec) 

Heartbeat CPU 0 instructions: 510000001 cycles: 130191595 heartbeat IPC: 3.4264 cumulative IPC: 3.4264 (Simulation time: 0 hr 38 min 14 sec) 
Heartbeat CPU 0 instructions: 520000000 cycles: 133108890 heartbeat IPC: 3.42783 cumulative IPC: 3.42712 (Simulation time: 0 hr 38 min 55 sec) 
Heartbeat CPU 0 instructions: 530000001 cycles: 136038579 heartbeat IPC: 3.41333 cumulative IPC: 3.42251 (Simulation time: 0 hr 39 min 36 sec) 
Heartbeat CPU 0 instructions: 540000002 cycles: 138959089 heartbeat IPC: 3.42406 cumulative IPC: 3.4229 (Simulation time: 0 hr 40 min 23 sec) 
Heartbeat CPU 0 instructions: 550000000 cycles: 141864773 heartbeat IPC: 3.44153 cumulative IPC: 3.42661 (Simulation time: 0 hr 41 min 24 sec) 
Heartbeat CPU 0 instructions: 560000003 cycles: 144776926 heartbeat IPC: 3.43389 cumulative IPC: 3.42782 (Simulation time: 0 hr 42 min 4 sec) 
Heartbeat CPU 0 instructions: 570000002 cycles: 147702893 heartbeat IPC: 3.41767 cumulative IPC: 3.42637 (Simulation time: 0 hr 42 min 45 sec) 
Heartbeat CPU 0 instructions: 580000004 cycles: 150626940 heartbeat IPC: 3.41992 cumulative IPC: 3.42556 (Simulation time: 0 hr 43 min 25 sec) 
Heartbeat CPU 0 instructions: 590000004 cycles: 153558758 heartbeat IPC: 3.41085 cumulative IPC: 3.42392 (Simulation time: 0 hr 44 min 6 sec) 
Heartbeat CPU 0 instructions: 600000000 cycles: 156502619 heartbeat IPC: 3.3969 cumulative IPC: 3.4212 (Simulation time: 0 hr 44 min 46 sec) 
Heartbeat CPU 0 instructions: 610000004 cycles: 159464509 heartbeat IPC: 3.37622 cumulative IPC: 3.41706 (Simulation time: 0 hr 45 min 27 sec) 
Heartbeat CPU 0 instructions: 620000000 cycles: 164312904 heartbeat IPC: 2.06254 cumulative IPC: 3.23976 (Simulation time: 0 hr 46 min 15 sec) 
Heartbeat CPU 0 instructions: 630000001 cycles: 169746984 heartbeat IPC: 1.84024 cumulative IPC: 3.0607 (Simulation time: 0 hr 46 min 56 sec) 
Heartbeat CPU 0 instructions: 640000003 cycles: 177372445 heartbeat IPC: 1.3114 cumulative IPC: 2.79445 (Simulation time: 0 hr 47 min 57 sec) 
Heartbeat CPU 0 instructions: 650000004 cycles: 182911834 heartbeat IPC: 1.80525 cumulative IPC: 2.69596 (Simulation time: 0 hr 48 min 48 sec) 
Heartbeat CPU 0 instructions: 660000001 cycles: 186510602 heartbeat IPC: 2.77873 cumulative IPC: 2.70099 (Simulation time: 0 hr 49 min 30 sec) 
Heartbeat CPU 0 instructions: 670000001 cycles: 189440587 heartbeat IPC: 3.41299 cumulative IPC: 2.73455 (Simulation time: 0 hr 50 min 12 sec) 
Heartbeat CPU 0 instructions: 680000001 cycles: 192366153 heartbeat IPC: 3.41814 cumulative IPC: 2.76527 (Simulation time: 0 hr 50 min 53 sec) 
Heartbeat CPU 0 instructions: 690000003 cycles: 195284653 heartbeat IPC: 3.42642 cumulative IPC: 2.79364 (Simulation time: 0 hr 51 min 34 sec) 
Heartbeat CPU 0 instructions: 700000000 cycles: 198207498 heartbeat IPC: 3.42132 cumulative IPC: 2.81951 (Simulation time: 0 hr 52 min 15 sec) 
Heartbeat CPU 0 instructions: 710000000 cycles: 201123699 heartbeat IPC: 3.42912 cumulative IPC: 2.84358 (Simulation time: 0 hr 52 min 57 sec) 
Heartbeat CPU 0 instructions: 720000003 cycles: 204047965 heartbeat IPC: 3.41966 cumulative IPC: 2.86552 (Simulation time: 0 hr 53 min 54 sec) 
Heartbeat CPU 0 instructions: 730000001 cycles: 206974354 heartbeat IPC: 3.41718 cumulative IPC: 2.88578 (Simulation time: 0 hr 54 min 41 sec) 
Heartbeat CPU 0 instructions: 740000004 cycles: 209891688 heartbeat IPC: 3.42779 cumulative IPC: 2.90491 (Simulation time: 0 hr 55 min 37 sec) 
Heartbeat CPU 0 instructions: 750000003 cycles: 212795091 heartbeat IPC: 3.44423 cumulative IPC: 2.92322 (Simulation time: 0 hr 56 min 49 sec) 
Heartbeat CPU 0 instructions: 760000004 cycles: 215711880 heartbeat IPC: 3.42843 cumulative IPC: 2.93989 (Simulation time: 0 hr 57 min 51 sec) 
Heartbeat CPU 0 instructions: 770000000 cycles: 218635222 heartbeat IPC: 3.42074 cumulative IPC: 2.95527 (Simulation time: 0 hr 58 min 32 sec) 
Heartbeat CPU 0 instructions: 780000001 cycles: 221564552 heartbeat IPC: 3.41375 cumulative IPC: 2.96952 (Simulation time: 0 hr 59 min 14 sec) 
Heartbeat CPU 0 instructions: 790000001 cycles: 224496317 heartbeat IPC: 3.41091 cumulative IPC: 2.98283 (Simulation time: 0 hr 59 min 55 sec) 
Heartbeat CPU 0 instructions: 800000002 cycles: 227439975 heartbeat IPC: 3.39713 cumulative IPC: 2.995 (Simulation time: 1 hr 0 min 37 sec) 
Heartbeat CPU 0 instructions: 810000001 cycles: 230405138 heartbeat IPC: 3.3725 cumulative IPC: 3.00585 (Simulation time: 1 hr 1 min 19 sec) 
Heartbeat CPU 0 instructions: 820000001 cycles: 235442371 heartbeat IPC: 1.98522 cumulative IPC: 2.95833 (Simulation time: 1 hr 2 min 8 sec) 
Heartbeat CPU 0 instructions: 830000002 cycles: 240896945 heartbeat IPC: 1.83332 cumulative IPC: 2.90432 (Simulation time: 1 hr 2 min 51 sec) 
Heartbeat CPU 0 instructions: 840000001 cycles: 248775103 heartbeat IPC: 1.26933 cumulative IPC: 2.79831 (Simulation time: 1 hr 3 min 55 sec) 
Heartbeat CPU 0 instructions: 850000003 cycles: 254012129 heartbeat IPC: 1.90948 cumulative IPC: 2.76158 (Simulation time: 1 hr 4 min 45 sec) 
Heartbeat CPU 0 instructions: 860000003 cycles: 257444333 heartbeat IPC: 2.91358 cumulative IPC: 2.76559 (Simulation time: 1 hr 5 min 28 sec) 
Heartbeat CPU 0 instructions: 870000004 cycles: 260380448 heartbeat IPC: 3.40586 cumulative IPC: 2.77971 (Simulation time: 1 hr 6 min 10 sec) 
Heartbeat CPU 0 instructions: 880000004 cycles: 263300756 heartbeat IPC: 3.4243 cumulative IPC: 2.79355 (Simulation time: 1 hr 6 min 51 sec) 
Heartbeat CPU 0 instructions: 890000000 cycles: 266219491 heartbeat IPC: 3.42614 cumulative IPC: 2.80684 (Simulation time: 1 hr 7 min 32 sec) 
Heartbeat CPU 0 instructions: 900000000 cycles: 269138397 heartbeat IPC: 3.42594 cumulative IPC: 2.81958 (Simulation time: 1 hr 8 min 13 sec) 
Heartbeat CPU 0 instructions: 910000001 cycles: 272054958 heartbeat IPC: 3.4287 cumulative IPC: 2.83185 (Simulation time: 1 hr 9 min 0 sec) 
Heartbeat CPU 0 instructions: 920000001 cycles: 274978908 heartbeat IPC: 3.42003 cumulative IPC: 2.84349 (Simulation time: 1 hr 9 min 52 sec) 
Heartbeat CPU 0 instructions: 930000001 cycles: 277908489 heartbeat IPC: 3.41346 cumulative IPC: 2.85457 (Simulation time: 1 hr 10 min 44 sec) 
Heartbeat CPU 0 instructions: 940000001 cycles: 280822724 heartbeat IPC: 3.43143 cumulative IPC: 2.86552 (Simulation time: 1 hr 11 min 25 sec) 
Heartbeat CPU 0 instructions: 950000004 cycles: 283726166 heartbeat IPC: 3.44419 cumulative IPC: 2.87626 (Simulation time: 1 hr 12 min 5 sec) 
Heartbeat CPU 0 instructions: 960000000 cycles: 286646654 heartbeat IPC: 3.42408 cumulative IPC: 2.8863 (Simulation time: 1 hr 12 min 46 sec) 
Heartbeat CPU 0 instructions: 970000003 cycles: 289569123 heartbeat IPC: 3.42177 cumulative IPC: 2.89594 (Simulation time: 1 hr 13 min 27 sec) 
Heartbeat CPU 0 instructions: 980000004 cycles: 292495731 heartbeat IPC: 3.41693 cumulative IPC: 2.90517 (Simulation time: 1 hr 14 min 8 sec) 
Heartbeat CPU 0 instructions: 990000003 cycles: 295437218 heartbeat IPC: 3.39964 cumulative IPC: 2.91382 (Simulation time: 1 hr 14 min 49 sec) 
Heartbeat CPU 0 instructions: 1000000002 cycles: 298378150 heartbeat IPC: 3.40028 cumulative IPC: 2.92218 (Simulation time: 1 hr 15 min 30 sec) 
Heartbeat CPU 0 instructions: 1010000003 cycles: 301341711 heartbeat IPC: 3.37432 cumulative IPC: 2.92988 (Simulation time: 1 hr 16 min 11 sec) 
Heartbeat CPU 0 instructions: 1020000003 cycles: 306759947 heartbeat IPC: 1.84562 cumulative IPC: 2.89715 (Simulation time: 1 hr 16 min 59 sec) 
Heartbeat CPU 0 instructions: 1030000000 cycles: 312347991 heartbeat IPC: 1.78953 cumulative IPC: 2.86371 (Simulation time: 1 hr 17 min 45 sec) 
Heartbeat CPU 0 instructions: 1040000000 cycles: 320145454 heartbeat IPC: 1.28247 cumulative IPC: 2.79978 (Simulation time: 1 hr 18 min 46 sec) 
Heartbeat CPU 0 instructions: 1050000003 cycles: 325108058 heartbeat IPC: 2.01507 cumulative IPC: 2.78009 (Simulation time: 1 hr 19 min 33 sec) 
Heartbeat CPU 0 instructions: 1060000001 cycles: 328386270 heartbeat IPC: 3.05044 cumulative IPC: 2.7845 (Simulation time: 1 hr 20 min 16 sec) 
Heartbeat CPU 0 instructions: 1070000003 cycles: 331311888 heartbeat IPC: 3.41808 cumulative IPC: 2.79359 (Simulation time: 1 hr 20 min 57 sec) 
Heartbeat CPU 0 instructions: 1080000000 cycles: 334233744 heartbeat IPC: 3.42248 cumulative IPC: 2.80246 (Simulation time: 1 hr 21 min 39 sec) 
Heartbeat CPU 0 instructions: 1090000001 cycles: 337159172 heartbeat IPC: 3.4183 cumulative IPC: 2.81105 (Simulation time: 1 hr 22 min 20 sec) 
Heartbeat CPU 0 instructions: 1100000000 cycles: 340072001 heartbeat IPC: 3.43309 cumulative IPC: 2.81956 (Simulation time: 1 hr 23 min 1 sec) 
Heartbeat CPU 0 instructions: 1110000002 cycles: 342988647 heartbeat IPC: 3.4286 cumulative IPC: 2.8278 (Simulation time: 1 hr 23 min 42 sec) 
Heartbeat CPU 0 instructions: 1120000000 cycles: 345918535 heartbeat IPC: 3.4131 cumulative IPC: 2.83564 (Simulation time: 1 hr 24 min 28 sec) 
Heartbeat CPU 0 instructions: 1130000002 cycles: 348850171 heartbeat IPC: 3.41107 cumulative IPC: 2.84325 (Simulation time: 1 hr 25 min 20 sec) 
Heartbeat CPU 0 instructions: 1140000004 cycles: 351754825 heartbeat IPC: 3.44275 cumulative IPC: 2.85101 (Simulation time: 1 hr 26 min 2 sec) 
Heartbeat CPU 0 instructions: 1150000001 cycles: 354660069 heartbeat IPC: 3.44205 cumulative IPC: 2.85856 (Simulation time: 1 hr 26 min 57 sec) 
Heartbeat CPU 0 instructions: 1160000000 cycles: 357586121 heartbeat IPC: 3.41757 cumulative IPC: 2.86566 (Simulation time: 1 hr 27 min 45 sec) 
Heartbeat CPU 0 instructions: 1170000004 cycles: 360504583 heartbeat IPC: 3.42646 cumulative IPC: 2.87268 (Simulation time: 1 hr 28 min 25 sec) 
Heartbeat CPU 0 instructions: 1180000004 cycles: 363434323 heartbeat IPC: 3.41327 cumulative IPC: 2.87939 (Simulation time: 1 hr 29 min 6 sec) 
Heartbeat CPU 0 instructions: 1190000004 cycles: 366375526 heartbeat IPC: 3.39997 cumulative IPC: 2.88579 (Simulation time: 1 hr 29 min 46 sec) 
Heartbeat CPU 0 instructions: 1200000000 cycles: 369319565 heartbeat IPC: 3.39669 cumulative IPC: 2.89201 (Simulation time: 1 hr 30 min 27 sec) 
Heartbeat CPU 0 instructions: 1210000002 cycles: 372280348 heartbeat IPC: 3.37749 cumulative IPC: 2.89787 (Simulation time: 1 hr 31 min 8 sec) 
Heartbeat CPU 0 instructions: 1220000004 cycles: 378097086 heartbeat IPC: 1.71918 cumulative IPC: 2.87054 (Simulation time: 1 hr 31 min 55 sec) 
Heartbeat CPU 0 instructions: 1230000003 cycles: 383658004 heartbeat IPC: 1.79826 cumulative IPC: 2.84728 (Simulation time: 1 hr 32 min 44 sec) 
Heartbeat CPU 0 instructions: 1240000003 cycles: 391537495 heartbeat IPC: 1.26912 cumulative IPC: 2.80023 (Simulation time: 1 hr 33 min 44 sec) 
Heartbeat CPU 0 instructions: 1250000004 cycles: 396113682 heartbeat IPC: 2.18523 cumulative IPC: 2.78976 (Simulation time: 1 hr 34 min 30 sec) 
Heartbeat CPU 0 instructions: 1260000000 cycles: 399331606 heartbeat IPC: 3.10759 cumulative IPC: 2.79352 (Simulation time: 1 hr 35 min 13 sec) 
Heartbeat CPU 0 instructions: 1270000000 cycles: 402255382 heartbeat IPC: 3.42023 cumulative IPC: 2.80018 (Simulation time: 1 hr 35 min 54 sec) 
Heartbeat CPU 0 instructions: 1280000004 cycles: 405177116 heartbeat IPC: 3.42263 cumulative IPC: 2.80672 (Simulation time: 1 hr 36 min 35 sec) 
Heartbeat CPU 0 instructions: 1290000000 cycles: 408101818 heartbeat IPC: 3.41915 cumulative IPC: 2.8131 (Simulation time: 1 hr 37 min 16 sec) 
Heartbeat CPU 0 instructions: 1300000003 cycles: 411019379 heartbeat IPC: 3.42752 cumulative IPC: 2.81942 (Simulation time: 1 hr 37 min 58 sec) 
Heartbeat CPU 0 instructions: 1310000002 cycles: 413929042 heartbeat IPC: 3.43682 cumulative IPC: 2.82569 (Simulation time: 1 hr 38 min 38 sec) 
Heartbeat CPU 0 instructions: 1320000000 cycles: 416858620 heartbeat IPC: 3.41346 cumulative IPC: 2.83163 (Simulation time: 1 hr 39 min 22 sec) 
Heartbeat CPU 0 instructions: 1330000000 cycles: 419789980 heartbeat IPC: 3.41139 cumulative IPC: 2.83744 (Simulation time: 1 hr 40 min 20 sec) 
Heartbeat CPU 0 instructions: 1340000003 cycles: 422693455 heartbeat IPC: 3.44415 cumulative IPC: 2.84341 (Simulation time: 1 hr 41 min 11 sec) 
Heartbeat CPU 0 instructions: 1350000003 cycles: 425600598 heartbeat IPC: 3.4398 cumulative IPC: 2.84922 (Simulation time: 1 hr 42 min 0 sec) 
Heartbeat CPU 0 instructions: 1360000001 cycles: 428528255 heartbeat IPC: 3.4157 cumulative IPC: 2.85472 (Simulation time: 1 hr 42 min 45 sec) 
Heartbeat CPU 0 instructions: 1370000000 cycles: 431444232 heartbeat IPC: 3.42938 cumulative IPC: 2.86023 (Simulation time: 1 hr 43 min 26 sec) 
Heartbeat CPU 0 instructions: 1380000003 cycles: 434374664 heartbeat IPC: 3.41247 cumulative IPC: 2.8655 (Simulation time: 1 hr 44 min 25 sec) 
Heartbeat CPU 0 instructions: 1390000003 cycles: 437317707 heartbeat IPC: 3.39784 cumulative IPC: 2.87055 (Simulation time: 1 hr 45 min 9 sec) 
Heartbeat CPU 0 instructions: 1400000000 cycles: 440263192 heartbeat IPC: 3.39503 cumulative IPC: 2.87549 (Simulation time: 1 hr 45 min 52 sec) 
Heartbeat CPU 0 instructions: 1410000002 cycles: 443226097 heartbeat IPC: 3.37507 cumulative IPC: 2.88018 (Simulation time: 1 hr 46 min 36 sec) 
Heartbeat CPU 0 instructions: 1420000002 cycles: 449447124 heartbeat IPC: 1.60745 cumulative IPC: 2.8556 (Simulation time: 1 hr 47 min 26 sec) 
Heartbeat CPU 0 instructions: 1430000000 cycles: 455615980 heartbeat IPC: 1.62105 cumulative IPC: 2.8324 (Simulation time: 1 hr 48 min 52 sec) 
Heartbeat CPU 0 instructions: 1440000001 cycles: 462748636 heartbeat IPC: 1.402 cumulative IPC: 2.80199 (Simulation time: 1 hr 50 min 43 sec) 
Heartbeat CPU 0 instructions: 1450000003 cycles: 467124033 heartbeat IPC: 2.28551 cumulative IPC: 2.79534 (Simulation time: 1 hr 51 min 41 sec) 
Heartbeat CPU 0 instructions: 1460000000 cycles: 470271698 heartbeat IPC: 3.17696 cumulative IPC: 2.79885 (Simulation time: 1 hr 52 min 23 sec) 
Heartbeat CPU 0 instructions: 1470000001 cycles: 473192123 heartbeat IPC: 3.42416 cumulative IPC: 2.80412 (Simulation time: 1 hr 53 min 7 sec) 
Heartbeat CPU 0 instructions: 1480000003 cycles: 476115127 heartbeat IPC: 3.42114 cumulative IPC: 2.80929 (Simulation time: 1 hr 53 min 51 sec) 
Heartbeat CPU 0 instructions: 1490000000 cycles: 479039316 heartbeat IPC: 3.41975 cumulative IPC: 2.81437 (Simulation time: 1 hr 54 min 46 sec) 
Heartbeat CPU 0 instructions: 1500000002 cycles: 481959303 heartbeat IPC: 3.42467 cumulative IPC: 2.81939 (Simulation time: 1 hr 55 min 43 sec) 
Heartbeat CPU 0 instructions: 1510000001 cycles: 484869412 heartbeat IPC: 3.4363 cumulative IPC: 2.82441 (Simulation time: 1 hr 56 min 46 sec) 
Heartbeat CPU 0 instructions: 1520000004 cycles: 487796065 heartbeat IPC: 3.41687 cumulative IPC: 2.82922 (Simulation time: 1 hr 57 min 59 sec) 
Heartbeat CPU 0 instructions: 1530000003 cycles: 490727017 heartbeat IPC: 3.41186 cumulative IPC: 2.83392 (Simulation time: 1 hr 59 min 5 sec) 
Heartbeat CPU 0 instructions: 1540000000 cycles: 493629309 heartbeat IPC: 3.44555 cumulative IPC: 2.83877 (Simulation time: 1 hr 59 min 45 sec) 
Heartbeat CPU 0 instructions: 1550000003 cycles: 496540482 heartbeat IPC: 3.43504 cumulative IPC: 2.84347 (Simulation time: 2 hr 0 min 27 sec) 
Heartbeat CPU 0 instructions: 1560000003 cycles: 499464667 heartbeat IPC: 3.41976 cumulative IPC: 2.848 (Simulation time: 2 hr 1 min 7 sec) 
Heartbeat CPU 0 instructions: 1570000004 cycles: 502386491 heartbeat IPC: 3.42252 cumulative IPC: 2.85247 (Simulation time: 2 hr 1 min 48 sec) 
Heartbeat CPU 0 instructions: 1580000003 cycles: 505317226 heartbeat IPC: 3.41211 cumulative IPC: 2.85681 (Simulation time: 2 hr 2 min 28 sec) 
Heartbeat CPU 0 instructions: 1590000002 cycles: 508256328 heartbeat IPC: 3.4024 cumulative IPC: 2.86102 (Simulation time: 2 hr 3 min 9 sec) 
Heartbeat CPU 0 instructions: 1600000000 cycles: 511208699 heartbeat IPC: 3.38711 cumulative IPC: 2.86506 (Simulation time: 2 hr 3 min 54 sec) 
Heartbeat CPU 0 instructions: 1610000003 cycles: 514790129 heartbeat IPC: 2.79218 cumulative IPC: 2.86439 (Simulation time: 2 hr 5 min 12 sec) 
Heartbeat CPU 0 instructions: 1620000001 cycles: 520983874 heartbeat IPC: 1.61453 cumulative IPC: 2.84473 (Simulation time: 2 hr 6 min 28 sec) 
Heartbeat CPU 0 instructions: 1630000004 cycles: 527704040 heartbeat IPC: 1.48806 cumulative IPC: 2.82196 (Simulation time: 2 hr 8 min 5 sec) 
Heartbeat CPU 0 instructions: 1640000000 cycles: 533977561 heartbeat IPC: 1.594 cumulative IPC: 2.80302 (Simulation time: 2 hr 9 min 53 sec) 
Heartbeat CPU 0 instructions: 1650000004 cycles: 538165524 heartbeat IPC: 2.3878 cumulative IPC: 2.79879 (Simulation time: 2 hr 10 min 39 sec) 
Heartbeat CPU 0 instructions: 1660000003 cycles: 541210597 heartbeat IPC: 3.28399 cumulative IPC: 2.80236 (Simulation time: 2 hr 11 min 21 sec) 
Heartbeat CPU 0 instructions: 1670000002 cycles: 544133411 heartbeat IPC: 3.42136 cumulative IPC: 2.8067 (Simulation time: 2 hr 12 min 14 sec) 
Heartbeat CPU 0 instructions: 1680000001 cycles: 547055521 heartbeat IPC: 3.42218 cumulative IPC: 2.81098 (Simulation time: 2 hr 13 min 3 sec) 
Heartbeat CPU 0 instructions: 1690000002 cycles: 549975117 heartbeat IPC: 3.42513 cumulative IPC: 2.81522 (Simulation time: 2 hr 13 min 49 sec) 
Heartbeat CPU 0 instructions: 1700000000 cycles: 552896647 heartbeat IPC: 3.42286 cumulative IPC: 2.81939 (Simulation time: 2 hr 14 min 31 sec) 
Heartbeat CPU 0 instructions: 1710000004 cycles: 555807076 heartbeat IPC: 3.43592 cumulative IPC: 2.82358 (Simulation time: 2 hr 15 min 12 sec) 
Heartbeat CPU 0 instructions: 1720000003 cycles: 558736015 heartbeat IPC: 3.41421 cumulative IPC: 2.82759 (Simulation time: 2 hr 15 min 54 sec) 
Heartbeat CPU 0 instructions: 1730000000 cycles: 561664654 heartbeat IPC: 3.41455 cumulative IPC: 2.83155 (Simulation time: 2 hr 16 min 35 sec) 
Heartbeat CPU 0 instructions: 1740000001 cycles: 564565168 heartbeat IPC: 3.44767 cumulative IPC: 2.83563 (Simulation time: 2 hr 17 min 17 sec) 
Heartbeat CPU 0 instructions: 1750000001 cycles: 567478186 heartbeat IPC: 3.43287 cumulative IPC: 2.83959 (Simulation time: 2 hr 17 min 58 sec) 
Heartbeat CPU 0 instructions: 1760000001 cycles: 570403066 heartbeat IPC: 3.41894 cumulative IPC: 2.84341 (Simulation time: 2 hr 18 min 39 sec) 
Heartbeat CPU 0 instructions: 1770000000 cycles: 573326678 heartbeat IPC: 3.42043 cumulative IPC: 2.84719 (Simulation time: 2 hr 19 min 20 sec) 
Heartbeat CPU 0 instructions: 1780000002 cycles: 576256591 heartbeat IPC: 3.41307 cumulative IPC: 2.85088 (Simulation time: 2 hr 20 min 1 sec) 
Heartbeat CPU 0 instructions: 1790000000 cycles: 579194484 heartbeat IPC: 3.4038 cumulative IPC: 2.85448 (Simulation time: 2 hr 20 min 42 sec) 
Heartbeat CPU 0 instructions: 1800000002 cycles: 582151144 heartbeat IPC: 3.3822 cumulative IPC: 2.85791 (Simulation time: 2 hr 21 min 24 sec) 
Heartbeat CPU 0 instructions: 1810000001 cycles: 586378778 heartbeat IPC: 2.36539 cumulative IPC: 2.85337 (Simulation time: 2 hr 22 min 22 sec) 
Heartbeat CPU 0 instructions: 1820000000 cycles: 592223019 heartbeat IPC: 1.71109 cumulative IPC: 2.83902 (Simulation time: 2 hr 23 min 14 sec) 
Heartbeat CPU 0 instructions: 1830000003 cycles: 598894535 heartbeat IPC: 1.49891 cumulative IPC: 2.82006 (Simulation time: 2 hr 24 min 12 sec) 
Heartbeat CPU 0 instructions: 1840000002 cycles: 605199702 heartbeat IPC: 1.586 cumulative IPC: 2.80378 (Simulation time: 2 hr 25 min 11 sec) 
Heartbeat CPU 0 instructions: 1850000001 cycles: 609205514 heartbeat IPC: 2.49637 cumulative IPC: 2.80122 (Simulation time: 2 hr 25 min 56 sec) 
Heartbeat CPU 0 instructions: 1860000001 cycles: 612156832 heartbeat IPC: 3.38832 cumulative IPC: 2.8048 (Simulation time: 2 hr 26 min 39 sec) 
Heartbeat CPU 0 instructions: 1870000003 cycles: 615078869 heartbeat IPC: 3.42227 cumulative IPC: 2.80849 (Simulation time: 2 hr 27 min 21 sec) 
Heartbeat CPU 0 instructions: 1880000003 cycles: 617998826 heartbeat IPC: 3.42471 cumulative IPC: 2.81216 (Simulation time: 2 hr 28 min 4 sec) 
Heartbeat CPU 0 instructions: 1890000000 cycles: 620919929 heartbeat IPC: 3.42336 cumulative IPC: 2.81578 (Simulation time: 2 hr 28 min 46 sec) 
Heartbeat CPU 0 instructions: 1900000000 cycles: 623841303 heartbeat IPC: 3.42305 cumulative IPC: 2.81935 (Simulation time: 2 hr 29 min 29 sec) 
Heartbeat CPU 0 instructions: 1910000003 cycles: 626757260 heartbeat IPC: 3.42941 cumulative IPC: 2.82291 (Simulation time: 2 hr 30 min 10 sec) 
Heartbeat CPU 0 instructions: 1920000000 cycles: 629687438 heartbeat IPC: 3.41276 cumulative IPC: 2.82635 (Simulation time: 2 hr 30 min 54 sec) 
Heartbeat CPU 0 instructions: 1930000000 cycles: 632609150 heartbeat IPC: 3.42265 cumulative IPC: 2.8298 (Simulation time: 2 hr 31 min 36 sec) 
Heartbeat CPU 0 instructions: 1940000000 cycles: 635513835 heartbeat IPC: 3.44271 cumulative IPC: 2.8333 (Simulation time: 2 hr 32 min 16 sec) 
Heartbeat CPU 0 instructions: 1950000000 cycles: 638425705 heartbeat IPC: 3.43422 cumulative IPC: 2.83673 (Simulation time: 2 hr 32 min 57 sec) 
Heartbeat CPU 0 instructions: 1960000004 cycles: 641350052 heartbeat IPC: 3.41957 cumulative IPC: 2.84004 (Simulation time: 2 hr 33 min 38 sec) 
Heartbeat CPU 0 instructions: 1970000000 cycles: 644271762 heartbeat IPC: 3.42265 cumulative IPC: 2.84333 (Simulation time: 2 hr 34 min 18 sec) 
Heartbeat CPU 0 instructions: 1980000002 cycles: 647206070 heartbeat IPC: 3.40796 cumulative IPC: 2.84652 (Simulation time: 2 hr 34 min 59 sec) 
Heartbeat CPU 0 instructions: 1990000001 cycles: 650144352 heartbeat IPC: 3.40335 cumulative IPC: 2.84965 (Simulation time: 2 hr 35 min 40 sec) 
*** Reached end of trace: traces/435.gromacs-134B.champsimtrace.xz
Heartbeat CPU 0 instructions: 2000000000 cycles: 653105610 heartbeat IPC: 3.37694 cumulative IPC: 2.85262 (Simulation time: 2 hr 36 min 20 sec) 
Finished CPU 0 instructions: 1500000000 cycles: 525832530 cumulative IPC: 2.85262 (Simulation time: 2 hr 36 min 20 sec) 

ChampSim completed all CPUs

Region of Interest Statistics

CPU 0 cumulative IPC: 2.85262 instructions: 1500000000 cycles: 525832530
cpu0_DTLB TOTAL     ACCESS:  218793711  HIT:  217096985  MISS:    1696726
cpu0_DTLB LOAD      ACCESS:  137799146  HIT:  136107609  MISS:    1691537
cpu0_DTLB RFO       ACCESS:   80994565  HIT:   80989376  MISS:       5189
cpu0_DTLB PREFETCH  ACCESS:          0  HIT:          0  MISS:          0
cpu0_DTLB WRITEBACK ACCESS:          0  HIT:          0  MISS:          0
cpu0_DTLB TRANSLATION ACCESS:          0  HIT:          0  MISS:          0
cpu0_DTLB PREFETCH  REQUESTED:          0  ISSUED:          0  USEFUL:          0  USELESS:          0
cpu0_DTLB AVERAGE MISS LATENCY: 9.07087 cycles
cpu0_ITLB TOTAL     ACCESS:   36808572  HIT:   36808445  MISS:        127
cpu0_ITLB LOAD      ACCESS:   36808572  HIT:   36808445  MISS:        127
cpu0_ITLB RFO       ACCESS:          0  HIT:          0  MISS:          0
cpu0_ITLB PREFETCH  ACCESS:          0  HIT:          0  MISS:          0
cpu0_ITLB WRITEBACK ACCESS:          0  HIT:          0  MISS:          0
cpu0_ITLB TRANSLATION ACCESS:          0  HIT:          0  MISS:          0
cpu0_ITLB PREFETCH  REQUESTED:          0  ISSUED:          0  USEFUL:          0  USELESS:          0
cpu0_ITLB AVERAGE MISS LATENCY: 35.1417 cycles
cpu0_L1I TOTAL     ACCESS:  136178274  HIT:  136172267  MISS:       6007
cpu0_L1I LOAD      ACCESS:  136178274  HIT:  136172267  MISS:       6007
cpu0_L1I RFO       ACCESS:          0  HIT:          0  MISS:          0
cpu0_L1I PREFETCH  ACCESS:          0  HIT:          0  MISS:          0
cpu0_L1I WRITEBACK ACCESS:          0  HIT:          0  MISS:          0
cpu0_L1I TRANSLATION ACCESS:          0  HIT:          0  MISS:          0
cpu0_L1I PREFETCH  REQUESTED:          0  ISSUED:          0  USEFUL:          0  USELESS:          0
cpu0_L1I AVERAGE MISS LATENCY: 277.856 cycles
cpu0_STLB TOTAL     ACCESS:    1696853  HIT:    1691030  MISS:       5823
cpu0_STLB LOAD      ACCESS:    1691664  HIT:    1687067  MISS:       4597
cpu0_STLB RFO       ACCESS:       5189  HIT:       3963  MISS:       1226
cpu0_STLB PREFETCH  ACCESS:          0  HIT:          0  MISS:          0
cpu0_STLB WRITEBACK ACCESS:          0  HIT:          0  MISS:          0
cpu0_STLB TRANSLATION ACCESS:          0  HIT:          0  MISS:          0
cpu0_STLB PREFETCH  REQUESTED:          0  ISSUED:          0  USEFUL:          0  USELESS:          0
cpu0_STLB AVERAGE MISS LATENCY: 16.107 cycles
cpu0_L1D TOTAL     ACCESS:  348867963  HIT:  340550820  MISS:    8317143
cpu0_L1D LOAD      ACCESS:  144291550  HIT:  136235839  MISS:    8055711
cpu0_L1D RFO       ACCESS:  204570590  HIT:  204311952  MISS:     258638
cpu0_L1D PREFETCH  ACCESS:          0  HIT:          0  MISS:          0
cpu0_L1D WRITEBACK ACCESS:          0  HIT:          0  MISS:          0
cpu0_L1D TRANSLATION ACCESS:       5823  HIT:       3029  MISS:       2794
cpu0_L1D PREFETCH  REQUESTED:          0  ISSUED:          0  USEFUL:          0  USELESS:          0
cpu0_L1D AVERAGE MISS LATENCY: 35.7046 cycles
cpu0_L2C TOTAL     ACCESS:   12076233  HIT:   10471083  MISS:    1605150
cpu0_L2C LOAD      ACCESS:    8060464  HIT:    6702198  MISS:    1358266
cpu0_L2C RFO       ACCESS:     258638  HIT:      12280  MISS:     246358
cpu0_L2C PREFETCH  ACCESS:          0  HIT:          0  MISS:          0
cpu0_L2C WRITEBACK ACCESS:    3754337  HIT:    3754010  MISS:        327
cpu0_L2C TRANSLATION ACCESS:       2794  HIT:       2595  MISS:        199
cpu0_L2C PREFETCH  REQUESTED:          0  ISSUED:          0  USEFUL:          0  USELESS:          0
cpu0_L2C AVERAGE MISS LATENCY: 128.866 cycles
LLC TOTAL     ACCESS:    2086826  HIT:    1224533  MISS:     862293
LLC LOAD      ACCESS:    1357409  HIT:     699070  MISS:     658339
LLC RFO       ACCESS:     246358  HIT:      44709  MISS:     201649
LLC PREFETCH  ACCESS:          0  HIT:          0  MISS:          0
LLC WRITEBACK ACCESS:     482860  HIT:     480604  MISS:       2256
LLC TRANSLATION ACCESS:        199  HIT:        150  MISS:         49
LLC PREFETCH  REQUESTED:          0  ISSUED:          0  USEFUL:          0  USELESS:          0
LLC AVERAGE MISS LATENCY: 200.818 cycles
~~~~~~~~~~Reuse Distance Profiler output~~~~~~~~~~
0	135338112	16519200
1	64976048	23102144
2	43822752	20177360
3	38138480	15389344
4	30635200	13986240
5	15048032	8776480
6	13661872	9407840
7	9492896	7011952
8	7639472	6898496
9	6401632	5616288
10	6437472	5117008
11	6804048	5290688
12	7102592	4967200
13	5761744	3449120
14	4708656	2560944
15	3706784	2650432
16	3599152	2531680
17	2003120	1315344
18	1657456	1169776
19	1319664	1027536
20	961408	664416
21	822960	645952
22	679296	497024
23	636144	484000
24	647984	476560
25	706912	581504
26	497680	407904
27	482944	387072
28	419056	343536
29	518080	391360
30	551344	439904
31	749232	616736
32	847152	745520
33	910736	805552
34	708880	594752
35	596384	503888
36	576480	475632
37	679824	276000
38	651568	280144
39	781200	220448
40	677632	114576
41	649360	141232
42	566240	173728
43	389232	134496
44	310048	92992
45	356240	174000
46	270832	140016
47	233056	118656
48	462160	292976
49	349280	224992
50	352864	229680
51	259856	127616
52	182608	54864
53	181152	43840
54	237200	92896
55	206160	62768
56	229984	45920
57	565440	340304
58	646112	358896
59	553312	133152
60	571552	73152
61	554000	53856
62	542640	61392
63	439696	60384
64	885712	151152
66	913248	306864
68	1138064	617184
70	1333824	822816
72	944064	544416
74	568016	212480
76	752128	174112
78	602960	189360
80	500400	174992
82	258368	123232
84	180048	105504
86	348752	99616
88	356464	87040
90	421968	117200
92	428240	278080
94	420864	354096
96	470960	415472
98	497104	440064
100	422288	358688
102	575872	456544
104	1202736	936400
106	1759328	1212656
108	1845040	1032832
110	1492128	801376
112	925872	586352
114	623344	408000
116	1297728	863584
118	1223536	785744
120	489360	268576
122	201168	118848
124	162336	111200
126	175200	91040
128	264272	111232
132	200800	131552
136	235280	208672
140	278832	262688
144	163312	153632
148	111024	89904
152	114064	94464
156	62736	61104
160	45504	44752
164	58928	58512
168	73600	66832
172	117616	92160
176	82576	81328
180	53424	52704
184	50960	49312
188	46976	44672
192	35952	33984
196	27136	26320
200	27296	26928
204	31552	31200
208	34992	34480
212	36112	35664
216	37984	37184
220	36480	35824
224	37264	36720
228	40256	38672
232	39856	37888
236	36144	34384
240	26352	25520
244	19808	19504
248	17072	16848
252	19280	19104
256	38560	38384
264	40288	39920
272	47472	47184
280	54352	54128
288	55136	54864
296	45392	44848
304	40768	40128
312	37568	37328
320	39056	38928
328	40720	40480
336	40224	40000
344	36528	36368
352	39552	39408
360	42512	42320
368	44160	44048
376	46896	46736
384	47472	47424
392	50960	50736
400	55984	55888
408	50528	50416
416	45296	45200
424	44240	44144
432	43056	42960
440	46080	45888
448	42880	42800
456	40608	40480
464	42192	42128
472	40272	40048
480	44160	44080
488	43392	43280
496	46816	46720
504	44208	44096
512	87824	87552
528	88656	88528
544	80848	80688
560	92560	92256
576	86944	86656
592	81120	80976
608	86656	86336
624	75728	75568
640	78288	78064
656	73168	72976
672	68800	68496
688	80864	80640
704	81216	81008
720	80368	80208
736	72480	72208
752	73920	73712
768	68752	68640
784	66992	66736
800	70976	70720
816	63008	62880
832	60720	60576
848	52080	51904
864	55712	55536
880	58800	58640
896	53712	53552
912	53216	53040
928	64304	64208
944	56608	56448
960	46064	45936
976	46464	46336
992	53552	53376
1008	47264	47184
1024	86368	86176
1056	77168	76848
1088	65056	64784
1120	67808	67600
1152	64064	63776
1184	45568	45200
1216	46448	46080
1248	50848	50640
1280	33648	33280
1312	23936	23712
1344	35584	35424
1376	29440	29136
1408	19984	19664
1440	21824	21632
1472	29632	29200
1504	18864	18608
1536	18464	18272
1568	26064	25840
1600	22176	22000
1632	16032	15824
1664	20256	20048
1696	24992	24832
1728	18176	18048
1760	16704	16448
1792	23088	22784
1824	20336	20160
1856	15840	15568
1888	21392	21104
1920	19072	18768
1952	16528	16320
1984	17280	17056
2016	18832	18736
2048	28800	28352
2112	35344	35056
2176	30368	29824
2240	31520	31200
2304	34288	33952
2368	27088	26736
2432	35072	34656
2496	27312	26832
2560	32400	31920
2624	32000	31632
2688	27664	27328
2752	33952	33648
2816	26128	25760
2880	29840	29504
2944	26736	26432
3008	28496	28192
3072	28480	28064
3136	24560	24304
3200	27968	27792
3264	27104	26800
3328	25984	25792
3392	30656	30288
3456	27152	26704
3520	29328	29072
3584	28240	27984
3648	30672	30416
3712	30976	30688
3776	27728	27424
3840	30784	30544
3904	26512	26320
3968	28432	28176
4032	27088	26848
4096	58224	57712
4224	59728	59280
4352	59344	58656
4480	60384	59888
4608	59232	58864
4736	60608	60208
4864	55392	55008
4992	56160	55744
5120	58720	58288
5248	54128	53712
5376	51008	50624
5504	50544	50192
5632	46912	46560
5760	43424	43104
5888	42448	42080
6016	41856	41632
6144	37600	37360
6272	32368	32160
6400	30928	30672
6528	30896	30576
6656	26352	26080
6784	23808	23440
6912	22592	22368
7040	19712	19472
7168	20224	20016
7296	17600	17296
7424	18992	18784
7552	17744	17568
7680	16000	15744
7808	16288	16112
7936	16976	16880
8064	16848	16688
8192	30512	30192
8448	31664	31280
8704	29280	28896
8960	28832	28576
9216	30528	30320
9472	31536	31200
9728	28864	28544
9984	30080	29920
10240	28768	28528
10496	27936	27808
10752	28656	28496
11008	27520	27424
11264	27760	27616
11520	28528	28272
11776	31024	30912
12032	29024	28896
12288	27168	27008
12544	28752	28672
12800	25872	25824
13056	24848	24816
13312	25280	25264
13568	26080	26064
13824	24528	24512
14080	24144	24096
14336	25008	24960
14592	24128	24128
14848	22272	22272
15104	24144	24128
15360	22032	22032
15616	21216	21216
15872	22352	22352
16128	20624	20608
16384	43072	43024
16896	44720	44720
17408	42448	42368
17920	41328	41328
18432	43760	43680
18944	58320	55056
19456	68720	67840
19968	42880	42720
20480	40832	40672
20992	39504	39488
21504	36928	36896
22016	39456	39408
22528	39360	39248
23040	40688	39712
23552	44944	44800
24064	38496	38432
24576	36432	36368
25088	35376	35312
25600	37216	37056
26112	37056	36704
26624	34880	34656
27136	33200	33008
27648	35440	35232
28160	36352	36208
28672	32288	32048
29184	33040	32896
29696	34592	34320
30208	35856	35568
30720	35776	35472
31232	35120	34896
31744	34048	33888
32256	32608	32368
32768	70912	70272
33792	68144	67712
34816	64512	63984
35840	68528	67952
36864	62624	62320
37888	62000	61504
38912	63376	62848
39936	63488	62944
40960	59072	58656
41984	59824	59536
43008	58176	57824
44032	56112	55696
45056	56400	55904
46080	57472	56736
47104	59904	58944
48128	59440	58608
49152	55328	54928
50176	53520	53120
51200	52016	51584
52224	52720	52240
53248	51392	50832
54272	52784	52176
55296	55024	54112
56320	52192	51696
57344	53584	53056
58368	50656	50224
59392	49328	48800
60416	52512	52000
61440	49712	49248
62464	49104	48704
63488	47472	47120
64512	49920	49536
65536	101360	99728
67584	93680	92576
69632	97344	96400
71680	96720	95856
73728	87312	86592
75776	93440	92160
77824	87408	86416
79872	87728	86816
81920	84240	83200
83968	84656	83632
86016	81760	80864
88064	81472	80416
90112	81232	80240
92160	74704	74272
94208	77856	77856
96256	79664	79664
98304	77200	77168
100352	71712	71632
102400	73536	73392
104448	74192	74080
106496	72000	71840
108544	69360	69248
110592	65696	65568
112640	66640	66496
114688	68704	68608
116736	66000	65840
118784	63408	63296
120832	66304	66176
122880	64016	63904
124928	65584	65472
126976	62464	62304
129024	61120	60928
131072	121856	121584
135168	113360	113104
139264	112608	112368
143360	109584	109360
147456	104464	104192
151552	103136	102896
155648	99696	99408
159744	98560	98320
163840	98416	98192
167936	94800	94560
172032	91824	91568
176128	91888	91584
180224	86016	85760
184320	87632	87344
188416	81520	81280
192512	79664	79408
196608	77600	77312
200704	78288	78048
204800	74624	74384
208896	70512	70240
212992	71840	71648
217088	70384	70128
221184	69760	69504
225280	62048	61776
229376	65520	65232
233472	63408	63120
237568	63568	63280
241664	55072	54896
245760	59456	59456
249856	53104	53104
253952	55216	55216
258048	51616	51616
262144	98304	98304
270336	93168	93168
278528	89792	89792
286720	87696	87696
294912	76432	76416
303104	73024	73008
311296	75744	75744
319488	69904	69904
327680	67328	67328
335872	64432	64432
344064	60544	60544
352256	57280	57280
360448	55232	55200
368640	50576	50576
376832	47024	47008
385024	49120	49120
393216	45552	45552
401408	43664	43664
409600	42224	42224
417792	39728	39728
425984	38048	38048
434176	36512	36512
442368	35168	35168
450560	33744	33744
458752	32320	32320
466944	28608	28592
475136	28736	28736
483328	28096	28096
491520	26448	26448
499712	26000	26000
507904	25504	25472
516096	24368	24368
524288	47376	47376
540672	47024	47024
557056	44064	44064
573440	40800	40800
589824	38736	38736
606208	31696	31696
622592	28752	28752
638976	29488	29488
655360	26160	26144
671744	24512	24512
688128	24624	24608
704512	20368	20336
720896	20864	20784
737280	18624	18400
753664	17648	17408
770048	15280	15040
786432	14832	14432
802816	13584	13200
819200	13984	13504
835584	12048	11664
851968	13760	13536
868352	12912	12752
884736	10768	10592
901120	12704	12624
917504	10864	10800
933888	11840	11712
950272	11232	11184
966656	12240	12208
983040	11168	11168
999424	10272	10272
1015808	10448	10448
1032192	11280	11264
1048576	30528	30528
1081344	17328	17312
1114112	101696	101632
1146880	13024	13008
1179648	16320	16304
1212416	21472	21440
1245184	14688	14688
1277952	9248	8320
1310720	8752	7296
1343488	6864	5344
1376256	8240	6768
1409024	9088	7808
1441792	7408	6016
1474560	5936	4528
1507328	6192	4656
1540096	3808	2368
1572864	4464	3056
1605632	4176	2768
1638400	2320	848
1671168	2480	1072
1703936	2112	816
1736704	2992	896
1769472	3504	976
1802240	3552	784
1835008	3968	1264
1867776	4144	2256
1900544	5568	3568
1933312	5840	3888
1966080	4912	3312
1998848	2672	1664
2031616	2320	1168
2064384	4672	4240
2097152	8672	7440
2162688	9584	8896
2228224	7088	7088
2293760	7104	7104
2359296	6432	6432
2424832	6896	6880
2490368	32128	32080
2555904	3008	1456
2621440	3552	1504
2686976	3168	1360
2752512	3840	1760
2818048	5312	3392
2883584	6112	4176
2949120	4560	2672
3014656	5216	3296
3080192	4480	2592
3145728	4528	2592
3211264	12464	10528
3276800	2704	832
3342336	2336	400
3407872	2528	608
3473408	3056	1232
3538944	4944	3088
3604480	4864	3808
3670016	2800	2272
3735552	2224	1440
3801088	2080	1344
3866624	2416	1696
3932160	2144	1408
3997696	2032	1312
4063232	1696	976
4128768	1648	1088
4194304	2528	1408
4325376	2544	1088
4456448	2032	848
4587520	1072	592
4718592	624	592
4849664	448	432
4980736	736	736
5111808	480	480
5242880	480	480
5373952	496	480
5505024	736	720
5636096	592	560
5767168	592	592
5898240	528	528
6029312	560	560
6160384	464	464
6291456	592	576
6422528	560	560
6553600	560	560
6684672	384	368
6815744	384	384
6946816	672	656
7077888	496	496
7208960	576	560
7340032	384	384
7471104	464	464
7602176	688	688
7733248	352	352
7864320	720	720
7995392	448	448
8126464	704	704
8257536	464	464
8388608	1120	1120
8650752	832	832
8912896	1072	1072
9175040	1120	1120
9437184	928	928
9699328	1024	1024
9961472	976	976
10223616	1168	1168
10485760	992	992
10747904	1296	1296
11010048	1280	1280
11272192	960	960
11534336	1056	1056
11796480	992	992
12058624	960	960
12320768	1232	1232
12582912	880	880
12845056	1056	1056
13107200	1072	1072
13369344	1152	1152
13631488	976	976
13893632	848	848
14155776	928	928
14417920	880	880
14680064	976	976
14942208	1392	1392
15204352	896	896
15466496	1216	1216
15728640	1168	1168
15990784	1104	1104
16252928	1088	1088
16515072	912	912
16777216	1968	1968
17301504	1840	1840
17825792	1968	1968
18350080	1744	1744
18874368	3264	3264
19398656	5488	5488
19922944	5648	5648
20447232	5328	5328
20971520	4928	4928
21495808	5904	5904
22020096	5632	5632
22544384	2000	2000
23068672	1488	1488
23592960	944	944
24117248	944	944
24641536	48	48
25165824	16	16
25690112	0	0
26214400	0	0
26738688	0	0
27262976	0	0
27787264	0	0
28311552	0	0
28835840	16	16
29360128	16	16
29884416	0	0
30408704	0	0
30932992	0	0
31457280	0	0
31981568	0	0
32505856	0	0
33030144	0	0
33554432	0	0
34603008	0	0
35651584	0	0
36700160	1472	1472
37748736	3568	3568
38797312	1104	1104
39845888	240	240
40894464	1136	1136
41943040	33840	33792
42991616	67536	31744
44040192	59136	21072
45088768	422560	348960
46137344	32656	28640
47185920	34096	16672
48234496	15616	13056
49283072	15968	10544
50331648	90864	83488
51380224	240	240
52428800	224	224
53477376	112	112
54525952	0	0
55574528	0	0
56623104	0	0
57671680	0	0
58720256	0	0
59768832	0	0
60817408	0	0
61865984	0	0
62914560	0	0
63963136	0	0
65011712	0	0
66060288	0	0
67108864	0	0
69206016	0	0
71303168	0	0
73400320	0	0
75497472	0	0
77594624	0	0
79691776	0	0
81788928	0	0
83886080	0	0
85983232	0	0
88080384	0	0
90177536	0	0
92274688	0	0
94371840	0	0
96468992	0	0
98566144	0	0
100663296	0	0
102760448	0	0
104857600	0	0
106954752	0	0
109051904	0	0
111149056	0	0
113246208	0	0
115343360	0	0
117440512	0	0
119537664	0	0
121634816	0	0
123731968	0	0
125829120	0	0
127926272	0	0
130023424	0	0
132120576	0	0
134217728	0	0
138412032	0	0
142606336	0	0
146800640	0	0
150994944	0	0
155189248	0	0
159383552	0	0
163577856	0	0
167772160	0	0
171966464	0	0
176160768	0	0
180355072	0	0
184549376	0	0
188743680	0	0
192937984	0	0
197132288	0	0
201326592	0	0
205520896	0	0
209715200	0	0
213909504	0	0
218103808	0	0
222298112	0	0
226492416	0	0
230686720	0	0
234881024	0	0
239075328	0	0
243269632	0	0
247463936	0	0
251658240	0	0
255852544	0	0
260046848	0	0
264241152	0	0
268435456	0	0
276824064	0	0
285212672	0	0
293601280	0	0
301989888	0	0
310378496	0	0
318767104	0	0
327155712	0	0
335544320	0	0
343932928	0	0
352321536	0	0
360710144	0	0
369098752	0	0
377487360	0	0
385875968	0	0
394264576	0	0
402653184	0	0
411041792	0	0
419430400	0	0
427819008	0	0
436207616	0	0
444596224	0	0
452984832	0	0
461373440	0	0
469762048	0	0
478150656	0	0
486539264	0	0
494927872	0	0
503316480	0	0
511705088	0	0
520093696	0	0
528482304	0	0
536870912	0	0
553648128	0	0
570425344	0	0
587202560	0	0
603979776	0	0
620756992	0	0
637534208	0	0
654311424	0	0
671088640	0	0
687865856	0	0
704643072	0	0
721420288	0	0
738197504	0	0
754974720	0	0
771751936	0	0
788529152	0	0
805306368	0	0
822083584	0	0
838860800	0	0
855638016	0	0
872415232	0	0
889192448	0	0
905969664	0	0
922746880	0	0
939524096	0	0
956301312	0	0
973078528	0	0
989855744	0	0
1006632960	0	0
1023410176	0	0
1040187392	0	0
1056964608	0	0
1073741824	0	0
1107296256	0	0
1140850688	0	0
1174405120	0	0
1207959552	0	0
1241513984	0	0
1275068416	0	0
1308622848	0	0
1342177280	0	0
1375731712	0	0
1409286144	0	0
1442840576	0	0
1476395008	0	0
1509949440	0	0
1543503872	0	0
1577058304	0	0
1610612736	0	0
1644167168	0	0
1677721600	0	0
1711276032	0	0
1744830464	0	0
1778384896	0	0
1811939328	0	0
1845493760	0	0
1879048192	0	0
1912602624	0	0
1946157056	0	0
1979711488	0	0
2013265920	0	0
2046820352	0	0
2080374784	0	0
2113929216	0	0
2147483648	0	0
2214592512	0	0
2281701376	0	0
2348810240	0	0
2415919104	0	0
2483027968	0	0
2550136832	0	0
2617245696	0	0
2684354560	0	0
2751463424	0	0
2818572288	0	0
2885681152	0	0
2952790016	0	0
3019898880	0	0
3087007744	0	0
3154116608	0	0
3221225472	0	0
3288334336	0	0
3355443200	0	0
3422552064	0	0
3489660928	0	0
3556769792	0	0
3623878656	0	0
3690987520	0	0
3758096384	0	0
3825205248	0	0
3892314112	0	0
3959422976	0	0
4026531840	0	0
4093640704	0	0
4160749568	0	0
4227858432	0	0
~~~~~~~~~~Reuse Distance Profiler output end~~~~~~~~~~

DRAM Statistics
 CHANNEL 0
 RQ ROW_BUFFER_HIT:     181934  ROW_BUFFER_MISS:     677580
 DBUS AVG_CONGESTED_CYCLE:    3.95207
 WQ ROW_BUFFER_HIT:      41160  ROW_BUFFER_MISS:     251339  FULL:          0


CPU 0 Branch Prediction Accuracy: 85.0415% MPKI: 1.29068 Average ROB Occupancy at Mispredict: 151.422
Branch type MPKI
BRANCH_DIRECT_JUMP: 9.33333e-06
BRANCH_INDIRECT: 1.86667e-05
BRANCH_CONDITIONAL: 1.29065
BRANCH_DIRECT_CALL: 1.33333e-06
BRANCH_INDIRECT_CALL: 0
BRANCH_RETURN: 1.33333e-06

