
*** ChampSim Multicore Out-of-Order Simulator ***

Warmup Instructions: 500000000
Simulation Instructions: 1500000000
Number of CPUs: 1
Off-chip DRAM Size: 4 GiB Channels: 1 Width: 64-bit Data Rate: 3200 MT/s

VirtualMemory physical capacity: 8588881920 num_ppages: 2096895
VirtualMemory page size: 4096 log2_page_size: 12

CPU 0 runs traces/437.leslie3d-265B.champsimtrace.xz
CPU 0 Bimodal branch predictor
Basic BTB sets: 1024 ways: 8 indirect buffer size: 4096 RAS size: 64
Initializing LRU.
Initializing LRU.
Initializing LRU.
Initializing LRU.
Initializing rdLRU.
Initializing LRU.
Initializing LRU.
Heartbeat CPU 0 instructions: 10000003 cycles: 3789767 heartbeat IPC: 2.63869 cumulative IPC: 2.63869 (Simulation time: 0 hr 0 min 54 sec) 
Heartbeat CPU 0 instructions: 20000000 cycles: 7576969 heartbeat IPC: 2.64047 cumulative IPC: 2.63958 (Simulation time: 0 hr 1 min 47 sec) 
Heartbeat CPU 0 instructions: 30000001 cycles: 11365454 heartbeat IPC: 2.63958 cumulative IPC: 2.63958 (Simulation time: 0 hr 2 min 41 sec) 
Heartbeat CPU 0 instructions: 40000004 cycles: 15155090 heartbeat IPC: 2.63878 cumulative IPC: 2.63938 (Simulation time: 0 hr 3 min 35 sec) 
Heartbeat CPU 0 instructions: 50000001 cycles: 18942280 heartbeat IPC: 2.64048 cumulative IPC: 2.6396 (Simulation time: 0 hr 4 min 29 sec) 
Heartbeat CPU 0 instructions: 60000000 cycles: 22730779 heartbeat IPC: 2.63957 cumulative IPC: 2.63959 (Simulation time: 0 hr 5 min 22 sec) 
Heartbeat CPU 0 instructions: 70000001 cycles: 26520414 heartbeat IPC: 2.63878 cumulative IPC: 2.63948 (Simulation time: 0 hr 6 min 16 sec) 
Heartbeat CPU 0 instructions: 80000000 cycles: 30307590 heartbeat IPC: 2.64049 cumulative IPC: 2.6396 (Simulation time: 0 hr 7 min 10 sec) 
Heartbeat CPU 0 instructions: 90000002 cycles: 34096110 heartbeat IPC: 2.63955 cumulative IPC: 2.6396 (Simulation time: 0 hr 8 min 4 sec) 
Heartbeat CPU 0 instructions: 100000004 cycles: 37885742 heartbeat IPC: 2.63878 cumulative IPC: 2.63952 (Simulation time: 0 hr 8 min 57 sec) 
Heartbeat CPU 0 instructions: 110000003 cycles: 41672896 heartbeat IPC: 2.64051 cumulative IPC: 2.63961 (Simulation time: 0 hr 9 min 51 sec) 
Heartbeat CPU 0 instructions: 120000001 cycles: 45461439 heartbeat IPC: 2.63954 cumulative IPC: 2.6396 (Simulation time: 0 hr 10 min 45 sec) 
Heartbeat CPU 0 instructions: 130000000 cycles: 49251066 heartbeat IPC: 2.63878 cumulative IPC: 2.63954 (Simulation time: 0 hr 11 min 38 sec) 
Heartbeat CPU 0 instructions: 140000004 cycles: 53060497 heartbeat IPC: 2.62507 cumulative IPC: 2.6385 (Simulation time: 0 hr 12 min 28 sec) 
Heartbeat CPU 0 instructions: 150000001 cycles: 56976613 heartbeat IPC: 2.55355 cumulative IPC: 2.63266 (Simulation time: 0 hr 13 min 20 sec) 
Heartbeat CPU 0 instructions: 160000000 cycles: 60893399 heartbeat IPC: 2.55311 cumulative IPC: 2.62754 (Simulation time: 0 hr 14 min 13 sec) 
Heartbeat CPU 0 instructions: 170000002 cycles: 64809517 heartbeat IPC: 2.55355 cumulative IPC: 2.62307 (Simulation time: 0 hr 15 min 5 sec) 
Heartbeat CPU 0 instructions: 180000004 cycles: 68726308 heartbeat IPC: 2.55311 cumulative IPC: 2.61908 (Simulation time: 0 hr 15 min 58 sec) 
Heartbeat CPU 0 instructions: 190000001 cycles: 72642425 heartbeat IPC: 2.55355 cumulative IPC: 2.61555 (Simulation time: 0 hr 16 min 50 sec) 
Heartbeat CPU 0 instructions: 200000003 cycles: 76637617 heartbeat IPC: 2.50301 cumulative IPC: 2.60968 (Simulation time: 0 hr 17 min 44 sec) 
Heartbeat CPU 0 instructions: 210000000 cycles: 80610624 heartbeat IPC: 2.51698 cumulative IPC: 2.60512 (Simulation time: 0 hr 18 min 38 sec) 
Heartbeat CPU 0 instructions: 220000004 cycles: 84643637 heartbeat IPC: 2.47954 cumulative IPC: 2.59913 (Simulation time: 0 hr 19 min 34 sec) 
Heartbeat CPU 0 instructions: 230000000 cycles: 89210279 heartbeat IPC: 2.18979 cumulative IPC: 2.57818 (Simulation time: 0 hr 20 min 47 sec) 
Heartbeat CPU 0 instructions: 240000004 cycles: 93813878 heartbeat IPC: 2.17221 cumulative IPC: 2.55826 (Simulation time: 0 hr 22 min 1 sec) 
Heartbeat CPU 0 instructions: 250000003 cycles: 98417474 heartbeat IPC: 2.17221 cumulative IPC: 2.5402 (Simulation time: 0 hr 23 min 21 sec) 
Heartbeat CPU 0 instructions: 260000002 cycles: 102872573 heartbeat IPC: 2.24462 cumulative IPC: 2.5274 (Simulation time: 0 hr 24 min 47 sec) 
Heartbeat CPU 0 instructions: 270000002 cycles: 106703483 heartbeat IPC: 2.61035 cumulative IPC: 2.53038 (Simulation time: 0 hr 25 min 42 sec) 
Heartbeat CPU 0 instructions: 280000003 cycles: 110534181 heartbeat IPC: 2.61049 cumulative IPC: 2.53315 (Simulation time: 0 hr 26 min 35 sec) 
Heartbeat CPU 0 instructions: 290000000 cycles: 114364397 heartbeat IPC: 2.61082 cumulative IPC: 2.53575 (Simulation time: 0 hr 27 min 28 sec) 
Heartbeat CPU 0 instructions: 300000000 cycles: 118192560 heartbeat IPC: 2.61222 cumulative IPC: 2.53823 (Simulation time: 0 hr 28 min 21 sec) 
Heartbeat CPU 0 instructions: 310000000 cycles: 122004961 heartbeat IPC: 2.62302 cumulative IPC: 2.54088 (Simulation time: 0 hr 29 min 14 sec) 
Heartbeat CPU 0 instructions: 320000003 cycles: 125817364 heartbeat IPC: 2.62302 cumulative IPC: 2.54337 (Simulation time: 0 hr 30 min 6 sec) 
Heartbeat CPU 0 instructions: 330000000 cycles: 129629762 heartbeat IPC: 2.62302 cumulative IPC: 2.54571 (Simulation time: 0 hr 30 min 58 sec) 
Heartbeat CPU 0 instructions: 340000000 cycles: 133442910 heartbeat IPC: 2.62251 cumulative IPC: 2.54791 (Simulation time: 0 hr 31 min 50 sec) 
Heartbeat CPU 0 instructions: 350000002 cycles: 137273130 heartbeat IPC: 2.61082 cumulative IPC: 2.54966 (Simulation time: 0 hr 33 min 1 sec) 
Heartbeat CPU 0 instructions: 360000000 cycles: 141103115 heartbeat IPC: 2.61098 cumulative IPC: 2.55133 (Simulation time: 0 hr 33 min 56 sec) 
Heartbeat CPU 0 instructions: 370000000 cycles: 144933111 heartbeat IPC: 2.61097 cumulative IPC: 2.5529 (Simulation time: 0 hr 35 min 3 sec) 
Heartbeat CPU 0 instructions: 380000003 cycles: 148763565 heartbeat IPC: 2.61066 cumulative IPC: 2.55439 (Simulation time: 0 hr 35 min 57 sec) 
Heartbeat CPU 0 instructions: 390000004 cycles: 152594389 heartbeat IPC: 2.6104 cumulative IPC: 2.5558 (Simulation time: 0 hr 36 min 50 sec) 
Heartbeat CPU 0 instructions: 400000002 cycles: 156425134 heartbeat IPC: 2.61046 cumulative IPC: 2.55713 (Simulation time: 0 hr 37 min 44 sec) 
Heartbeat CPU 0 instructions: 410000001 cycles: 160326572 heartbeat IPC: 2.56316 cumulative IPC: 2.55728 (Simulation time: 0 hr 38 min 44 sec) 
Heartbeat CPU 0 instructions: 420000001 cycles: 164237605 heartbeat IPC: 2.55687 cumulative IPC: 2.55727 (Simulation time: 0 hr 40 min 10 sec) 
Heartbeat CPU 0 instructions: 430000001 cycles: 168148643 heartbeat IPC: 2.55687 cumulative IPC: 2.55726 (Simulation time: 0 hr 41 min 5 sec) 
Heartbeat CPU 0 instructions: 440000002 cycles: 172059680 heartbeat IPC: 2.55687 cumulative IPC: 2.55725 (Simulation time: 0 hr 42 min 0 sec) 
Heartbeat CPU 0 instructions: 450000001 cycles: 175970715 heartbeat IPC: 2.55687 cumulative IPC: 2.55724 (Simulation time: 0 hr 43 min 14 sec) 
Heartbeat CPU 0 instructions: 460000003 cycles: 180128036 heartbeat IPC: 2.4054 cumulative IPC: 2.55374 (Simulation time: 0 hr 44 min 40 sec) 
Heartbeat CPU 0 instructions: 470000002 cycles: 184369348 heartbeat IPC: 2.35776 cumulative IPC: 2.54923 (Simulation time: 0 hr 46 min 14 sec) 
Heartbeat CPU 0 instructions: 480000002 cycles: 188471022 heartbeat IPC: 2.43803 cumulative IPC: 2.54681 (Simulation time: 0 hr 47 min 52 sec) 
Heartbeat CPU 0 instructions: 490000003 cycles: 193074360 heartbeat IPC: 2.17234 cumulative IPC: 2.53788 (Simulation time: 0 hr 49 min 17 sec) 
Heartbeat CPU 0 instructions: 500000004 cycles: 197677694 heartbeat IPC: 2.17234 cumulative IPC: 2.52937 (Simulation time: 0 hr 50 min 32 sec) 

Warmup complete CPU 0 instructions: 500000004 cycles: 197677694 (Simulation time: 0 hr 50 min 32 sec) 

Heartbeat CPU 0 instructions: 510000002 cycles: 213991823 heartbeat IPC: 0.612965 cumulative IPC: 0.612965 (Simulation time: 0 hr 52 min 58 sec) 
Heartbeat CPU 0 instructions: 520000001 cycles: 221673455 heartbeat IPC: 1.30181 cumulative IPC: 0.83348 (Simulation time: 0 hr 54 min 22 sec) 
Heartbeat CPU 0 instructions: 530000002 cycles: 228803048 heartbeat IPC: 1.4026 cumulative IPC: 0.963844 (Simulation time: 0 hr 55 min 42 sec) 
Heartbeat CPU 0 instructions: 540000004 cycles: 235918545 heartbeat IPC: 1.40538 cumulative IPC: 1.046 (Simulation time: 0 hr 57 min 2 sec) 
Heartbeat CPU 0 instructions: 550000002 cycles: 243013383 heartbeat IPC: 1.40948 cumulative IPC: 1.10288 (Simulation time: 0 hr 58 min 22 sec) 
Heartbeat CPU 0 instructions: 560000001 cycles: 250124848 heartbeat IPC: 1.40618 cumulative IPC: 1.14401 (Simulation time: 1 hr 0 min 0 sec) 
Heartbeat CPU 0 instructions: 570000000 cycles: 257264516 heartbeat IPC: 1.40063 cumulative IPC: 1.17476 (Simulation time: 1 hr 1 min 18 sec) 
Heartbeat CPU 0 instructions: 580000002 cycles: 264386836 heartbeat IPC: 1.40404 cumulative IPC: 1.19924 (Simulation time: 1 hr 2 min 48 sec) 
Heartbeat CPU 0 instructions: 590000000 cycles: 271503162 heartbeat IPC: 1.40522 cumulative IPC: 1.21909 (Simulation time: 1 hr 4 min 10 sec) 
Heartbeat CPU 0 instructions: 600000002 cycles: 278566080 heartbeat IPC: 1.41585 cumulative IPC: 1.23627 (Simulation time: 1 hr 5 min 33 sec) 
Heartbeat CPU 0 instructions: 610000000 cycles: 285652731 heartbeat IPC: 1.4111 cumulative IPC: 1.25035 (Simulation time: 1 hr 7 min 12 sec) 
Heartbeat CPU 0 instructions: 620000002 cycles: 292758025 heartbeat IPC: 1.4074 cumulative IPC: 1.26209 (Simulation time: 1 hr 9 min 4 sec) 
Heartbeat CPU 0 instructions: 630000002 cycles: 299862871 heartbeat IPC: 1.40749 cumulative IPC: 1.2722 (Simulation time: 1 hr 10 min 24 sec) 
Heartbeat CPU 0 instructions: 640000003 cycles: 306977805 heartbeat IPC: 1.40549 cumulative IPC: 1.28088 (Simulation time: 1 hr 11 min 49 sec) 
Heartbeat CPU 0 instructions: 650000002 cycles: 314071301 heartbeat IPC: 1.40974 cumulative IPC: 1.28873 (Simulation time: 1 hr 13 min 43 sec) 
Heartbeat CPU 0 instructions: 660000001 cycles: 321193075 heartbeat IPC: 1.40414 cumulative IPC: 1.29539 (Simulation time: 1 hr 15 min 28 sec) 
Heartbeat CPU 0 instructions: 670000000 cycles: 333117044 heartbeat IPC: 0.838647 cumulative IPC: 1.25517 (Simulation time: 1 hr 17 min 33 sec) 
Heartbeat CPU 0 instructions: 680000003 cycles: 348670857 heartbeat IPC: 0.642929 cumulative IPC: 1.19211 (Simulation time: 1 hr 19 min 38 sec) 
Heartbeat CPU 0 instructions: 690000001 cycles: 364248365 heartbeat IPC: 0.641951 cumulative IPC: 1.14066 (Simulation time: 1 hr 21 min 42 sec) 
Heartbeat CPU 0 instructions: 700000004 cycles: 379814393 heartbeat IPC: 0.642425 cumulative IPC: 1.09808 (Simulation time: 1 hr 23 min 48 sec) 
Heartbeat CPU 0 instructions: 710000000 cycles: 395184512 heartbeat IPC: 0.650613 cumulative IPC: 1.06325 (Simulation time: 1 hr 26 min 14 sec) 
Heartbeat CPU 0 instructions: 720000003 cycles: 419707696 heartbeat IPC: 0.407778 cumulative IPC: 0.990857 (Simulation time: 1 hr 29 min 21 sec) 
Heartbeat CPU 0 instructions: 730000001 cycles: 436000066 heartbeat IPC: 0.613784 cumulative IPC: 0.965079 (Simulation time: 1 hr 31 min 38 sec) 
Heartbeat CPU 0 instructions: 740000000 cycles: 442968769 heartbeat IPC: 1.43499 cumulative IPC: 0.978429 (Simulation time: 1 hr 32 min 55 sec) 
Heartbeat CPU 0 instructions: 750000002 cycles: 450596549 heartbeat IPC: 1.311 cumulative IPC: 0.988459 (Simulation time: 1 hr 34 min 14 sec) 
Heartbeat CPU 0 instructions: 760000003 cycles: 458204045 heartbeat IPC: 1.31449 cumulative IPC: 0.99798 (Simulation time: 1 hr 36 min 4 sec) 
Heartbeat CPU 0 instructions: 770000001 cycles: 465809102 heartbeat IPC: 1.31491 cumulative IPC: 1.00697 (Simulation time: 1 hr 37 min 49 sec) 
Heartbeat CPU 0 instructions: 780000000 cycles: 473380591 heartbeat IPC: 1.32074 cumulative IPC: 1.01559 (Simulation time: 1 hr 39 min 11 sec) 
Heartbeat CPU 0 instructions: 790000003 cycles: 480999148 heartbeat IPC: 1.31258 cumulative IPC: 1.02357 (Simulation time: 1 hr 40 min 32 sec) 
Heartbeat CPU 0 instructions: 800000000 cycles: 489283345 heartbeat IPC: 1.20712 cumulative IPC: 1.02879 (Simulation time: 1 hr 41 min 58 sec) 
Heartbeat CPU 0 instructions: 810000001 cycles: 501853624 heartbeat IPC: 0.795527 cumulative IPC: 1.01915 (Simulation time: 1 hr 43 min 51 sec) 
Heartbeat CPU 0 instructions: 820000001 cycles: 514656963 heartbeat IPC: 0.781046 cumulative IPC: 1.00953 (Simulation time: 1 hr 45 min 45 sec) 
Heartbeat CPU 0 instructions: 830000003 cycles: 530126077 heartbeat IPC: 0.64645 cumulative IPC: 0.992635 (Simulation time: 1 hr 48 min 1 sec) 
Heartbeat CPU 0 instructions: 840000002 cycles: 546595401 heartbeat IPC: 0.607189 cumulative IPC: 0.974442 (Simulation time: 1 hr 50 min 27 sec) 
Heartbeat CPU 0 instructions: 850000000 cycles: 563036307 heartbeat IPC: 0.608239 cumulative IPC: 0.957963 (Simulation time: 1 hr 53 min 22 sec) 
Heartbeat CPU 0 instructions: 860000001 cycles: 579543249 heartbeat IPC: 0.605806 cumulative IPC: 0.94274 (Simulation time: 1 hr 56 min 1 sec) 
Heartbeat CPU 0 instructions: 870000000 cycles: 590383951 heartbeat IPC: 0.922449 cumulative IPC: 0.94218 (Simulation time: 1 hr 57 min 46 sec) 
Heartbeat CPU 0 instructions: 880000004 cycles: 598853027 heartbeat IPC: 1.18077 cumulative IPC: 0.947217 (Simulation time: 1 hr 59 min 13 sec) 
Heartbeat CPU 0 instructions: 890000000 cycles: 607333778 heartbeat IPC: 1.17914 cumulative IPC: 0.952018 (Simulation time: 2 hr 0 min 40 sec) 
Heartbeat CPU 0 instructions: 900000004 cycles: 615820852 heartbeat IPC: 1.17826 cumulative IPC: 0.95661 (Simulation time: 2 hr 2 min 7 sec) 
Heartbeat CPU 0 instructions: 910000004 cycles: 624282975 heartbeat IPC: 1.18174 cumulative IPC: 0.961076 (Simulation time: 2 hr 3 min 34 sec) 
Heartbeat CPU 0 instructions: 920000004 cycles: 632762965 heartbeat IPC: 1.17925 cumulative IPC: 0.965328 (Simulation time: 2 hr 5 min 4 sec) 
Heartbeat CPU 0 instructions: 930000002 cycles: 641239160 heartbeat IPC: 1.17977 cumulative IPC: 0.969426 (Simulation time: 2 hr 6 min 30 sec) 
Heartbeat CPU 0 instructions: 940000003 cycles: 649700620 heartbeat IPC: 1.18183 cumulative IPC: 0.973402 (Simulation time: 2 hr 7 min 56 sec) 
Heartbeat CPU 0 instructions: 950000000 cycles: 658150813 heartbeat IPC: 1.1834 cumulative IPC: 0.977256 (Simulation time: 2 hr 9 min 48 sec) 
Heartbeat CPU 0 instructions: 960000003 cycles: 666620543 heartbeat IPC: 1.18068 cumulative IPC: 0.98093 (Simulation time: 2 hr 11 min 14 sec) 
Heartbeat CPU 0 instructions: 970000002 cycles: 675055070 heartbeat IPC: 1.1856 cumulative IPC: 0.984546 (Simulation time: 2 hr 12 min 39 sec) 
Heartbeat CPU 0 instructions: 980000003 cycles: 683502926 heartbeat IPC: 1.18373 cumulative IPC: 0.98801 (Simulation time: 2 hr 14 min 5 sec) 
Heartbeat CPU 0 instructions: 990000004 cycles: 691976616 heartbeat IPC: 1.18012 cumulative IPC: 0.991303 (Simulation time: 2 hr 15 min 31 sec) 
Heartbeat CPU 0 instructions: 1000000002 cycles: 700443173 heartbeat IPC: 1.18112 cumulative IPC: 0.994499 (Simulation time: 2 hr 16 min 57 sec) 
Heartbeat CPU 0 instructions: 1010000000 cycles: 708729788 heartbeat IPC: 1.20677 cumulative IPC: 0.997941 (Simulation time: 2 hr 18 min 24 sec) 
Heartbeat CPU 0 instructions: 1020000002 cycles: 717092275 heartbeat IPC: 1.19582 cumulative IPC: 1.00113 (Simulation time: 2 hr 19 min 57 sec) 
Heartbeat CPU 0 instructions: 1030000001 cycles: 725274112 heartbeat IPC: 1.22222 cumulative IPC: 1.00456 (Simulation time: 2 hr 21 min 19 sec) 
Heartbeat CPU 0 instructions: 1040000002 cycles: 733467772 heartbeat IPC: 1.22046 cumulative IPC: 1.00786 (Simulation time: 2 hr 22 min 42 sec) 
Heartbeat CPU 0 instructions: 1050000001 cycles: 741701549 heartbeat IPC: 1.21451 cumulative IPC: 1.01099 (Simulation time: 2 hr 24 min 5 sec) 
Heartbeat CPU 0 instructions: 1060000000 cycles: 749823338 heartbeat IPC: 1.23126 cumulative IPC: 1.01423 (Simulation time: 2 hr 25 min 27 sec) 
Heartbeat CPU 0 instructions: 1070000003 cycles: 758019255 heartbeat IPC: 1.22012 cumulative IPC: 1.01724 (Simulation time: 2 hr 26 min 49 sec) 
Heartbeat CPU 0 instructions: 1080000000 cycles: 769660382 heartbeat IPC: 0.859023 cumulative IPC: 1.01402 (Simulation time: 2 hr 28 min 35 sec) 
Heartbeat CPU 0 instructions: 1090000002 cycles: 781763161 heartbeat IPC: 0.826257 cumulative IPC: 1.01013 (Simulation time: 2 hr 30 min 28 sec) 
Heartbeat CPU 0 instructions: 1100000002 cycles: 796216332 heartbeat IPC: 0.69189 cumulative IPC: 1.00244 (Simulation time: 2 hr 32 min 52 sec) 
Heartbeat CPU 0 instructions: 1110000000 cycles: 812729770 heartbeat IPC: 0.605567 cumulative IPC: 0.991786 (Simulation time: 2 hr 35 min 15 sec) 
Heartbeat CPU 0 instructions: 1120000001 cycles: 829074334 heartbeat IPC: 0.611824 cumulative IPC: 0.98195 (Simulation time: 2 hr 37 min 36 sec) 
Heartbeat CPU 0 instructions: 1130000003 cycles: 845382093 heartbeat IPC: 0.613205 cumulative IPC: 0.972666 (Simulation time: 2 hr 39 min 57 sec) 
Heartbeat CPU 0 instructions: 1140000003 cycles: 858835421 heartbeat IPC: 0.743311 cumulative IPC: 0.967999 (Simulation time: 2 hr 41 min 57 sec) 
Heartbeat CPU 0 instructions: 1150000002 cycles: 867754855 heartbeat IPC: 1.12115 cumulative IPC: 0.970038 (Simulation time: 2 hr 43 min 27 sec) 
Heartbeat CPU 0 instructions: 1160000000 cycles: 876785351 heartbeat IPC: 1.10736 cumulative IPC: 0.971864 (Simulation time: 2 hr 44 min 57 sec) 
Heartbeat CPU 0 instructions: 1170000001 cycles: 885847996 heartbeat IPC: 1.10343 cumulative IPC: 0.973596 (Simulation time: 2 hr 46 min 28 sec) 
Heartbeat CPU 0 instructions: 1180000003 cycles: 894931659 heartbeat IPC: 1.10088 cumulative IPC: 0.975254 (Simulation time: 2 hr 47 min 58 sec) 
Heartbeat CPU 0 instructions: 1190000003 cycles: 903964702 heartbeat IPC: 1.10705 cumulative IPC: 0.97694 (Simulation time: 2 hr 49 min 28 sec) 
Heartbeat CPU 0 instructions: 1200000001 cycles: 913049928 heartbeat IPC: 1.10069 cumulative IPC: 0.978512 (Simulation time: 2 hr 50 min 59 sec) 
Heartbeat CPU 0 instructions: 1210000004 cycles: 922237922 heartbeat IPC: 1.08838 cumulative IPC: 0.979905 (Simulation time: 2 hr 52 min 30 sec) 
Heartbeat CPU 0 instructions: 1220000003 cycles: 931295769 heartbeat IPC: 1.10401 cumulative IPC: 0.981437 (Simulation time: 2 hr 54 min 2 sec) 
Heartbeat CPU 0 instructions: 1230000003 cycles: 940407864 heartbeat IPC: 1.09744 cumulative IPC: 0.98286 (Simulation time: 2 hr 55 min 33 sec) 
Heartbeat CPU 0 instructions: 1240000001 cycles: 949622273 heartbeat IPC: 1.08526 cumulative IPC: 0.984115 (Simulation time: 2 hr 57 min 5 sec) 
Heartbeat CPU 0 instructions: 1250000001 cycles: 958834035 heartbeat IPC: 1.08557 cumulative IPC: 0.985343 (Simulation time: 2 hr 58 min 36 sec) 
Heartbeat CPU 0 instructions: 1260000003 cycles: 968007995 heartbeat IPC: 1.09004 cumulative IPC: 0.98659 (Simulation time: 3 hr 0 min 7 sec) 
Heartbeat CPU 0 instructions: 1270000000 cycles: 977113411 heartbeat IPC: 1.09825 cumulative IPC: 0.987894 (Simulation time: 3 hr 1 min 37 sec) 
Heartbeat CPU 0 instructions: 1280000004 cycles: 986286617 heartbeat IPC: 1.09013 cumulative IPC: 0.989083 (Simulation time: 3 hr 3 min 8 sec) 
Heartbeat CPU 0 instructions: 1290000003 cycles: 994752016 heartbeat IPC: 1.18128 cumulative IPC: 0.991125 (Simulation time: 3 hr 4 min 31 sec) 
Heartbeat CPU 0 instructions: 1300000002 cycles: 1003435936 heartbeat IPC: 1.15155 cumulative IPC: 0.992854 (Simulation time: 3 hr 5 min 55 sec) 
Heartbeat CPU 0 instructions: 1310000000 cycles: 1012079671 heartbeat IPC: 1.15691 cumulative IPC: 0.994595 (Simulation time: 3 hr 7 min 19 sec) 
Heartbeat CPU 0 instructions: 1320000000 cycles: 1020646961 heartbeat IPC: 1.16723 cumulative IPC: 0.996392 (Simulation time: 3 hr 8 min 42 sec) 
Heartbeat CPU 0 instructions: 1330000004 cycles: 1029296174 heartbeat IPC: 1.15618 cumulative IPC: 0.998054 (Simulation time: 3 hr 10 min 6 sec) 
Heartbeat CPU 0 instructions: 1340000000 cycles: 1039961582 heartbeat IPC: 0.93761 cumulative IPC: 0.997288 (Simulation time: 3 hr 11 min 46 sec) 
Heartbeat CPU 0 instructions: 1350000001 cycles: 1052217274 heartbeat IPC: 0.815947 cumulative IPC: 0.994688 (Simulation time: 3 hr 13 min 34 sec) 
Heartbeat CPU 0 instructions: 1360000000 cycles: 1067293243 heartbeat IPC: 0.663307 cumulative IPC: 0.988943 (Simulation time: 3 hr 15 min 41 sec) 
Heartbeat CPU 0 instructions: 1370000001 cycles: 1083632723 heartbeat IPC: 0.612015 cumulative IPC: 0.981991 (Simulation time: 3 hr 18 min 2 sec) 
Heartbeat CPU 0 instructions: 1380000003 cycles: 1099948051 heartbeat IPC: 0.612921 cumulative IPC: 0.975317 (Simulation time: 3 hr 20 min 22 sec) 
Heartbeat CPU 0 instructions: 1390000002 cycles: 1114792883 heartbeat IPC: 0.673635 cumulative IPC: 0.970434 (Simulation time: 3 hr 22 min 32 sec) 
Heartbeat CPU 0 instructions: 1400000003 cycles: 1121895622 heartbeat IPC: 1.40791 cumulative IPC: 0.973796 (Simulation time: 3 hr 23 min 49 sec) 
Heartbeat CPU 0 instructions: 1410000001 cycles: 1129022310 heartbeat IPC: 1.40318 cumulative IPC: 0.977082 (Simulation time: 3 hr 25 min 7 sec) 
Heartbeat CPU 0 instructions: 1420000000 cycles: 1136109675 heartbeat IPC: 1.41096 cumulative IPC: 0.980359 (Simulation time: 3 hr 26 min 24 sec) 
Heartbeat CPU 0 instructions: 1430000004 cycles: 1143224637 heartbeat IPC: 1.40549 cumulative IPC: 0.983558 (Simulation time: 3 hr 27 min 42 sec) 
Heartbeat CPU 0 instructions: 1440000000 cycles: 1150349070 heartbeat IPC: 1.40362 cumulative IPC: 0.986699 (Simulation time: 3 hr 28 min 59 sec) 
Heartbeat CPU 0 instructions: 1450000002 cycles: 1157470597 heartbeat IPC: 1.40419 cumulative IPC: 0.989797 (Simulation time: 3 hr 30 min 17 sec) 
Heartbeat CPU 0 instructions: 1460000003 cycles: 1164595786 heartbeat IPC: 1.40347 cumulative IPC: 0.992845 (Simulation time: 3 hr 31 min 34 sec) 
Heartbeat CPU 0 instructions: 1470000002 cycles: 1171671721 heartbeat IPC: 1.41324 cumulative IPC: 0.995899 (Simulation time: 3 hr 32 min 52 sec) 
Heartbeat CPU 0 instructions: 1480000003 cycles: 1178758172 heartbeat IPC: 1.41114 cumulative IPC: 0.998899 (Simulation time: 3 hr 34 min 9 sec) 
Heartbeat CPU 0 instructions: 1490000003 cycles: 1185862304 heartbeat IPC: 1.40763 cumulative IPC: 1.00184 (Simulation time: 3 hr 35 min 26 sec) 
Heartbeat CPU 0 instructions: 1500000001 cycles: 1192961296 heartbeat IPC: 1.40865 cumulative IPC: 1.00474 (Simulation time: 3 hr 36 min 44 sec) 
Heartbeat CPU 0 instructions: 1510000004 cycles: 1200085985 heartbeat IPC: 1.40357 cumulative IPC: 1.00757 (Simulation time: 3 hr 38 min 1 sec) 
Heartbeat CPU 0 instructions: 1520000002 cycles: 1207158435 heartbeat IPC: 1.41394 cumulative IPC: 1.01042 (Simulation time: 3 hr 39 min 19 sec) 
Heartbeat CPU 0 instructions: 1530000000 cycles: 1214283401 heartbeat IPC: 1.40352 cumulative IPC: 1.01318 (Simulation time: 3 hr 40 min 37 sec) 
Heartbeat CPU 0 instructions: 1540000000 cycles: 1221402721 heartbeat IPC: 1.40463 cumulative IPC: 1.0159 (Simulation time: 3 hr 41 min 54 sec) 
Heartbeat CPU 0 instructions: 1550000004 cycles: 1235108591 heartbeat IPC: 0.729615 cumulative IPC: 1.01212 (Simulation time: 3 hr 43 min 47 sec) 
Heartbeat CPU 0 instructions: 1560000002 cycles: 1250570217 heartbeat IPC: 0.646762 cumulative IPC: 1.00675 (Simulation time: 3 hr 45 min 49 sec) 
Heartbeat CPU 0 instructions: 1570000000 cycles: 1266041135 heartbeat IPC: 0.646374 cumulative IPC: 1.00153 (Simulation time: 3 hr 47 min 51 sec) 
Heartbeat CPU 0 instructions: 1580000000 cycles: 1281456169 heartbeat IPC: 0.648717 cumulative IPC: 0.996514 (Simulation time: 3 hr 49 min 53 sec) 
Heartbeat CPU 0 instructions: 1590000000 cycles: 1305174076 heartbeat IPC: 0.421622 cumulative IPC: 0.984202 (Simulation time: 3 hr 52 min 48 sec) 
Heartbeat CPU 0 instructions: 1600000001 cycles: 1321731296 heartbeat IPC: 0.603966 cumulative IPC: 0.978601 (Simulation time: 3 hr 55 min 10 sec) 
Heartbeat CPU 0 instructions: 1610000000 cycles: 1332437410 heartbeat IPC: 0.934046 cumulative IPC: 0.978181 (Simulation time: 3 hr 56 min 50 sec) 
Heartbeat CPU 0 instructions: 1620000003 cycles: 1340153785 heartbeat IPC: 1.29595 cumulative IPC: 0.980327 (Simulation time: 3 hr 58 min 11 sec) 
Heartbeat CPU 0 instructions: 1630000004 cycles: 1347849218 heartbeat IPC: 1.29947 cumulative IPC: 0.982462 (Simulation time: 3 hr 59 min 32 sec) 
Heartbeat CPU 0 instructions: 1640000002 cycles: 1355538086 heartbeat IPC: 1.30058 cumulative IPC: 0.984575 (Simulation time: 4 hr 0 min 52 sec) 
Heartbeat CPU 0 instructions: 1650000003 cycles: 1363241329 heartbeat IPC: 1.29815 cumulative IPC: 0.986647 (Simulation time: 4 hr 2 min 12 sec) 
Heartbeat CPU 0 instructions: 1660000003 cycles: 1370914826 heartbeat IPC: 1.30319 cumulative IPC: 0.988717 (Simulation time: 4 hr 3 min 34 sec) 
Heartbeat CPU 0 instructions: 1670000001 cycles: 1378612232 heartbeat IPC: 1.29914 cumulative IPC: 0.990741 (Simulation time: 4 hr 4 min 55 sec) 
Heartbeat CPU 0 instructions: 1680000003 cycles: 1389659186 heartbeat IPC: 0.905227 cumulative IPC: 0.989948 (Simulation time: 4 hr 6 min 37 sec) 
Heartbeat CPU 0 instructions: 1690000001 cycles: 1401900109 heartbeat IPC: 0.816932 cumulative IPC: 0.98819 (Simulation time: 4 hr 8 min 27 sec) 
Heartbeat CPU 0 instructions: 1700000003 cycles: 1415730696 heartbeat IPC: 0.723035 cumulative IPC: 0.985179 (Simulation time: 4 hr 10 min 25 sec) 
Heartbeat CPU 0 instructions: 1710000000 cycles: 1432452000 heartbeat IPC: 0.598039 cumulative IPC: 0.979936 (Simulation time: 4 hr 12 min 51 sec) 
Heartbeat CPU 0 instructions: 1720000002 cycles: 1448955211 heartbeat IPC: 0.605943 cumulative IPC: 0.975004 (Simulation time: 4 hr 15 min 15 sec) 
Heartbeat CPU 0 instructions: 1730000003 cycles: 1465371606 heartbeat IPC: 0.609147 cumulative IPC: 0.970266 (Simulation time: 4 hr 17 min 39 sec) 
Heartbeat CPU 0 instructions: 1740000004 cycles: 1479994682 heartbeat IPC: 0.683851 cumulative IPC: 0.967 (Simulation time: 4 hr 19 min 49 sec) 
Heartbeat CPU 0 instructions: 1750000004 cycles: 1488445381 heartbeat IPC: 1.18333 cumulative IPC: 0.968416 (Simulation time: 4 hr 21 min 14 sec) 
Heartbeat CPU 0 instructions: 1760000004 cycles: 1496902200 heartbeat IPC: 1.18248 cumulative IPC: 0.969809 (Simulation time: 4 hr 22 min 40 sec) 
Heartbeat CPU 0 instructions: 1770000000 cycles: 1505367592 heartbeat IPC: 1.18128 cumulative IPC: 0.971178 (Simulation time: 4 hr 24 min 5 sec) 
Heartbeat CPU 0 instructions: 1780000000 cycles: 1513818264 heartbeat IPC: 1.18334 cumulative IPC: 0.97254 (Simulation time: 4 hr 25 min 30 sec) 
Heartbeat CPU 0 instructions: 1790000000 cycles: 1522261657 heartbeat IPC: 1.18436 cumulative IPC: 0.973891 (Simulation time: 4 hr 26 min 55 sec) 
Heartbeat CPU 0 instructions: 1800000003 cycles: 1530706738 heartbeat IPC: 1.18412 cumulative IPC: 0.975223 (Simulation time: 4 hr 28 min 20 sec) 
Heartbeat CPU 0 instructions: 1810000002 cycles: 1539150921 heartbeat IPC: 1.18425 cumulative IPC: 0.976538 (Simulation time: 4 hr 29 min 45 sec) 
Heartbeat CPU 0 instructions: 1820000004 cycles: 1547598427 heartbeat IPC: 1.18378 cumulative IPC: 0.977835 (Simulation time: 4 hr 31 min 10 sec) 
Heartbeat CPU 0 instructions: 1830000002 cycles: 1556019633 heartbeat IPC: 1.18748 cumulative IPC: 0.979135 (Simulation time: 4 hr 32 min 34 sec) 
Heartbeat CPU 0 instructions: 1840000001 cycles: 1564457255 heartbeat IPC: 1.18517 cumulative IPC: 0.980407 (Simulation time: 4 hr 33 min 59 sec) 
Heartbeat CPU 0 instructions: 1850000000 cycles: 1572859419 heartbeat IPC: 1.19017 cumulative IPC: 0.981688 (Simulation time: 4 hr 35 min 23 sec) 
Heartbeat CPU 0 instructions: 1860000000 cycles: 1581303520 heartbeat IPC: 1.18426 cumulative IPC: 0.982925 (Simulation time: 4 hr 36 min 48 sec) 
Heartbeat CPU 0 instructions: 1870000001 cycles: 1589767897 heartbeat IPC: 1.18142 cumulative IPC: 0.984132 (Simulation time: 4 hr 38 min 14 sec) 
Heartbeat CPU 0 instructions: 1880000003 cycles: 1598199540 heartbeat IPC: 1.18601 cumulative IPC: 0.985347 (Simulation time: 4 hr 39 min 38 sec) 
Heartbeat CPU 0 instructions: 1890000003 cycles: 1606240143 heartbeat IPC: 1.24369 cumulative IPC: 0.986822 (Simulation time: 4 hr 40 min 57 sec) 
Heartbeat CPU 0 instructions: 1900000004 cycles: 1614381007 heartbeat IPC: 1.22837 cumulative IPC: 0.98821 (Simulation time: 4 hr 42 min 18 sec) 
Heartbeat CPU 0 instructions: 1910000003 cycles: 1622322610 heartbeat IPC: 1.25919 cumulative IPC: 0.98972 (Simulation time: 4 hr 43 min 37 sec) 
Heartbeat CPU 0 instructions: 1920000001 cycles: 1630312455 heartbeat IPC: 1.25159 cumulative IPC: 0.991181 (Simulation time: 4 hr 44 min 56 sec) 
Heartbeat CPU 0 instructions: 1930000000 cycles: 1638195055 heartbeat IPC: 1.26862 cumulative IPC: 0.992699 (Simulation time: 4 hr 46 min 14 sec) 
Heartbeat CPU 0 instructions: 1940000001 cycles: 1646150465 heartbeat IPC: 1.25701 cumulative IPC: 0.994151 (Simulation time: 4 hr 47 min 33 sec) 
Heartbeat CPU 0 instructions: 1950000001 cycles: 1655700616 heartbeat IPC: 1.0471 cumulative IPC: 0.994497 (Simulation time: 4 hr 49 min 3 sec) 
Heartbeat CPU 0 instructions: 1960000001 cycles: 1667912284 heartbeat IPC: 0.818889 cumulative IPC: 0.993039 (Simulation time: 4 hr 50 min 50 sec) 
Heartbeat CPU 0 instructions: 1970000004 cycles: 1680954127 heartbeat IPC: 0.766763 cumulative IPC: 0.991049 (Simulation time: 4 hr 52 min 42 sec) 
Heartbeat CPU 0 instructions: 1980000002 cycles: 1696842377 heartbeat IPC: 0.629396 cumulative IPC: 0.987216 (Simulation time: 4 hr 54 min 58 sec) 
Heartbeat CPU 0 instructions: 1990000004 cycles: 1713243891 heartbeat IPC: 0.6097 cumulative IPC: 0.983131 (Simulation time: 4 hr 57 min 19 sec) 
*** Reached end of trace: traces/437.leslie3d-265B.champsimtrace.xz
Heartbeat CPU 0 instructions: 2000000002 cycles: 1729544763 heartbeat IPC: 0.613464 cumulative IPC: 0.979197 (Simulation time: 4 hr 59 min 40 sec) 
Finished CPU 0 instructions: 1500000001 cycles: 1531867374 cumulative IPC: 0.979197 (Simulation time: 4 hr 59 min 40 sec) 

ChampSim completed all CPUs

Region of Interest Statistics

CPU 0 cumulative IPC: 0.979197 instructions: 1500000001 cycles: 1531867374
cpu0_DTLB TOTAL     ACCESS:  337387444  HIT:  337027554  MISS:     359890
cpu0_DTLB LOAD      ACCESS:  307075851  HIT:  306790473  MISS:     285378
cpu0_DTLB RFO       ACCESS:   30311593  HIT:   30237081  MISS:      74512
cpu0_DTLB PREFETCH  ACCESS:          0  HIT:          0  MISS:          0
cpu0_DTLB WRITEBACK ACCESS:          0  HIT:          0  MISS:          0
cpu0_DTLB TRANSLATION ACCESS:          0  HIT:          0  MISS:          0
cpu0_DTLB PREFETCH  REQUESTED:          0  ISSUED:          0  USEFUL:          0  USELESS:          0
cpu0_DTLB AVERAGE MISS LATENCY: 17.786 cycles
cpu0_ITLB TOTAL     ACCESS:   17412815  HIT:   17412752  MISS:         63
cpu0_ITLB LOAD      ACCESS:   17412815  HIT:   17412752  MISS:         63
cpu0_ITLB RFO       ACCESS:          0  HIT:          0  MISS:          0
cpu0_ITLB PREFETCH  ACCESS:          0  HIT:          0  MISS:          0
cpu0_ITLB WRITEBACK ACCESS:          0  HIT:          0  MISS:          0
cpu0_ITLB TRANSLATION ACCESS:          0  HIT:          0  MISS:          0
cpu0_ITLB PREFETCH  REQUESTED:          0  ISSUED:          0  USEFUL:          0  USELESS:          0
cpu0_ITLB AVERAGE MISS LATENCY: 185.19 cycles
cpu0_L1I TOTAL     ACCESS:   29884519  HIT:   29883163  MISS:       1356
cpu0_L1I LOAD      ACCESS:   29884519  HIT:   29883163  MISS:       1356
cpu0_L1I RFO       ACCESS:          0  HIT:          0  MISS:          0
cpu0_L1I PREFETCH  ACCESS:          0  HIT:          0  MISS:          0
cpu0_L1I WRITEBACK ACCESS:          0  HIT:          0  MISS:          0
cpu0_L1I TRANSLATION ACCESS:          0  HIT:          0  MISS:          0
cpu0_L1I PREFETCH  REQUESTED:          0  ISSUED:          0  USEFUL:          0  USELESS:          0
cpu0_L1I AVERAGE MISS LATENCY: 302.41 cycles
cpu0_STLB TOTAL     ACCESS:     359953  HIT:     192560  MISS:     167393
cpu0_STLB LOAD      ACCESS:     285441  HIT:     166126  MISS:     119315
cpu0_STLB RFO       ACCESS:      74512  HIT:      26434  MISS:      48078
cpu0_STLB PREFETCH  ACCESS:          0  HIT:          0  MISS:          0
cpu0_STLB WRITEBACK ACCESS:          0  HIT:          0  MISS:          0
cpu0_STLB TRANSLATION ACCESS:          0  HIT:          0  MISS:          0
cpu0_STLB PREFETCH  REQUESTED:          0  ISSUED:          0  USEFUL:          0  USELESS:          0
cpu0_STLB AVERAGE MISS LATENCY: 18.904 cycles
cpu0_L1D TOTAL     ACCESS:  398326534  HIT:  383970827  MISS:   14355707
cpu0_L1D LOAD      ACCESS:  361626794  HIT:  350807355  MISS:   10819439
cpu0_L1D RFO       ACCESS:   36541466  HIT:   33023545  MISS:    3517921
cpu0_L1D PREFETCH  ACCESS:          0  HIT:          0  MISS:          0
cpu0_L1D WRITEBACK ACCESS:          0  HIT:          0  MISS:          0
cpu0_L1D TRANSLATION ACCESS:     158274  HIT:     139927  MISS:      18347
cpu0_L1D PREFETCH  REQUESTED:          0  ISSUED:          0  USEFUL:          0  USELESS:          0
cpu0_L1D AVERAGE MISS LATENCY: 249.089 cycles
cpu0_L2C TOTAL     ACCESS:   18891723  HIT:    7731685  MISS:   11160038
cpu0_L2C LOAD      ACCESS:   10820660  HIT:    2332721  MISS:    8487939
cpu0_L2C RFO       ACCESS:    3517870  HIT:     854589  MISS:    2663281
cpu0_L2C PREFETCH  ACCESS:          0  HIT:          0  MISS:          0
cpu0_L2C WRITEBACK ACCESS:    4534846  HIT:    4526556  MISS:       8290
cpu0_L2C TRANSLATION ACCESS:      18347  HIT:      17819  MISS:        528
cpu0_L2C PREFETCH  REQUESTED:          0  ISSUED:          0  USEFUL:          0  USELESS:          0
cpu0_L2C AVERAGE MISS LATENCY: 306.287 cycles
LLC TOTAL     ACCESS:   14549964  HIT:    4181477  MISS:   10368487
LLC LOAD      ACCESS:    8487936  HIT:     678234  MISS:    7809702
LLC RFO       ACCESS:    2663273  HIT:     118442  MISS:    2544831
LLC PREFETCH  ACCESS:          0  HIT:          0  MISS:          0
LLC WRITEBACK ACCESS:    3398227  HIT:    3384501  MISS:      13726
LLC TRANSLATION ACCESS:        528  HIT:        300  MISS:        228
LLC PREFETCH  REQUESTED:          0  ISSUED:          0  USEFUL:          0  USELESS:          0
LLC AVERAGE MISS LATENCY: 307.083 cycles
~~~~~~~~~~Reuse Distance Profiler output~~~~~~~~~~
0	18702960	13906752
1	26566400	22825376
2	34007712	29154976
3	35045552	32221536
4	36586288	35180768
5	31982048	30653776
6	33887056	32492832
7	31540256	30280720
8	23133440	21915056
9	20835040	20087200
10	17361632	16332768
11	14716720	13804416
12	14053200	12678304
13	12462288	11215136
14	13001696	11622416
15	11041408	9800160
16	13426528	11901984
17	8762336	8072224
18	6198528	5494096
19	6078544	5640992
20	5904432	5249680
21	5068640	4607488
22	5697184	5288416
23	5379168	4989360
24	5758864	5336192
25	4781184	4411248
26	4906240	4525984
27	4386096	4043072
28	4513088	4167616
29	5486048	4886224
30	5685968	5193200
31	6051104	5346912
32	3568768	3212160
33	3821232	3432512
34	4103248	3761072
35	3141248	2806400
36	3800144	3559920
37	4515552	4130336
38	2823632	2699888
39	2260944	2118464
40	2133952	1904720
41	1801792	1648672
42	1959168	1834560
43	1869344	1774736
44	1979056	1785312
45	2366592	2272288
46	2600000	2516816
47	2508592	2408784
48	2143584	2089840
49	2359488	2268496
50	1935360	1837056
51	1952384	1758704
52	1853904	1663408
53	2020240	1891936
54	1534016	1332624
55	1800016	1606192
56	1530624	1384720
57	1413328	1231984
58	820176	678368
59	801648	620160
60	991168	884800
61	689888	636656
62	811424	733152
63	357344	281232
64	869776	801840
66	978480	892896
68	825504	752688
70	633424	561152
72	699616	662576
74	702992	590896
76	646400	530832
78	461360	439312
80	297136	275456
82	491184	447936
84	349248	297632
86	402368	393760
88	224672	216592
90	289632	281376
92	327088	321360
94	202224	195920
96	135264	131248
98	194464	141056
100	275808	271216
102	135184	132112
104	115440	112272
106	66320	63792
108	81088	78736
110	227072	224736
112	125008	123104
114	123456	121440
116	174496	172336
118	50992	48832
120	29984	27536
122	23536	21376
124	30784	28640
126	82112	80512
128	48208	46112
132	27232	25744
136	34576	29536
140	29872	29024
144	21424	20816
148	21536	21312
152	21712	21600
156	48800	48720
160	45920	45920
164	33328	33328
168	42848	42848
172	20304	20304
176	12288	12288
180	4448	4432
184	6560	4720
188	10112	2592
192	17696	8512
196	15232	9088
200	7616	2880
204	10560	5872
208	3792	2032
212	3200	3120
216	1952	1936
220	1264	1264
224	736	736
228	1392	1392
232	1296	1296
236	1312	1312
240	1456	1456
244	384	384
248	1232	1232
252	976	976
256	1856	1856
264	5456	5440
272	3920	3920
280	4992	4992
288	5664	5648
296	9712	9712
304	10448	10416
312	14288	14288
320	18736	18656
328	21040	21024
336	19984	19744
344	21072	19104
352	22928	18256
360	22176	18704
368	18768	18304
376	18928	18096
384	19008	15456
392	22800	19440
400	19024	17488
408	17152	17008
416	21360	21360
424	24000	24000
432	27504	27504
440	31216	31216
448	30208	30208
456	33920	33920
464	35760	35760
472	39728	39728
480	42720	42720
488	47472	47472
496	52384	52384
504	56000	55984
512	122608	122496
528	130496	130208
544	150160	145408
560	128752	126800
576	100416	100080
592	54624	52832
608	54784	51840
624	71440	70240
640	81648	81648
656	78304	78304
672	74080	74080
688	35840	35776
704	22928	22768
720	27696	27520
736	36512	35264
752	48784	47504
768	51392	50624
784	121616	120992
800	52976	51536
816	46784	46128
832	52192	52192
848	38368	38368
864	31392	31392
880	24480	24464
896	27216	27168
912	87696	87488
928	35312	34976
944	11344	11104
960	16624	16272
976	11872	11600
992	9936	9600
1008	8288	8000
1024	33200	31856
1056	28304	24960
1088	50256	49120
1120	95456	95440
1152	13216	13200
1184	18944	18944
1216	186048	186016
1248	234560	234176
1280	277360	275168
1312	24752	23808
1344	40528	38112
1376	28480	27328
1408	27792	25424
1440	20224	18704
1472	18384	18032
1504	17856	17680
1536	19264	18768
1568	17360	16512
1600	17920	16256
1632	27072	23424
1664	18832	18448
1696	16592	15072
1728	15104	13504
1760	12624	12528
1792	11600	10528
1824	10048	9808
1856	6816	6464
1888	13184	10560
1920	63424	62240
1952	171488	171008
1984	101104	100128
2016	28496	26192
2048	42912	42688
2112	9920	7920
2176	10928	6608
2240	11616	10832
2304	15664	12480
2368	20288	19664
2432	13760	10192
2496	9040	8688
2560	12368	8736
2624	23472	21936
2688	35616	31216
2752	35440	33056
2816	24336	23520
2880	17984	12912
2944	18112	14272
3008	20544	16928
3072	37584	27824
3136	38896	10160
3200	51344	14208
3264	60960	23568
3328	72720	39456
3392	64368	29504
3456	52368	12864
3520	52512	13232
3584	26960	14640
3648	21760	21280
3712	37504	33760
3776	29504	24992
3840	22560	22560
3904	16336	16336
3968	17744	17568
4032	32560	26608
4096	43104	42848
4224	50848	49008
4352	98544	94192
4480	96016	89648
4608	74032	66560
4736	78240	77232
4864	91568	80432
4992	96912	83344
5120	117536	99440
5248	113248	99024
5376	126480	112864
5504	92144	76528
5632	101920	88400
5760	90720	76048
5888	71664	62160
6016	48256	48192
6144	44176	44048
6272	33504	29280
6400	49616	40496
6528	58496	44624
6656	42432	38000
6784	59296	48416
6912	57808	45952
7040	49344	36640
7168	30528	21968
7296	19600	11984
7424	16576	9024
7552	23680	14048
7680	52144	44688
7808	68096	60720
7936	50032	42224
8064	47264	39920
8192	88704	73488
8448	89104	74384
8704	101968	87696
8960	144176	133264
9216	102192	96320
9472	68560	67952
9728	62256	60912
9984	98336	69152
10240	149024	82064
10496	130768	67776
10752	112192	56816
11008	152432	96080
11264	142096	84608
11520	153808	102032
11776	110384	68880
12032	119136	80560
12288	97104	75568
12544	117744	109680
12800	102928	100080
13056	77520	77008
13312	71248	65232
13568	81312	59904
13824	147424	96144
14080	165936	103056
14336	159472	97712
14592	159136	94480
14848	154448	86368
15104	147232	71104
15360	127568	63472
15616	94912	54864
15872	71632	46672
16128	53152	36080
16384	191344	82576
16896	127712	74720
17408	131360	74480
17920	130800	65344
18432	126048	38432
18944	113936	45120
19456	289632	191808
19968	448288	325760
20480	112400	41600
20992	48000	24832
21504	20880	5360
22016	21712	7328
22528	19472	6368
23040	26960	7344
23552	434864	320352
24064	38592	16928
24576	156624	96848
25088	102384	65408
25600	3824	112
26112	14624	11008
26624	9968	5168
27136	6032	1968
27648	4144	96
28160	5472	2736
28672	6640	1872
29184	4992	784
29696	12000	7088
30208	183088	139136
30720	5216	4784
31232	12384	9120
31744	10672	10672
32256	9536	9536
32768	19376	19376
33792	5680	5680
34816	32	0
35840	0	0
36864	208	208
37888	2400	816
38912	4192	1632
39936	6912	3424
40960	9072	9072
41984	9520	9472
43008	5840	5840
44032	0	0
45056	32	32
46080	208	144
47104	107264	104608
48128	9280	6576
49152	3552	1584
50176	4640	1744
51200	2304	1776
52224	736	736
53248	496	48
54272	2848	0
55296	2608	0
56320	2064	368
57344	7552	1808
58368	5552	1504
59392	6912	1616
60416	49216	46240
61440	11408	3440
62464	5680	400
63488	4624	208
64512	2704	704
65536	9520	1968
67584	14672	6960
69632	6272	2896
71680	832	576
73728	0	0
75776	2832	832
77824	7952	2640
79872	3136	2976
81920	704	704
83968	96	32
86016	8656	5328
88064	6720	3040
90112	5616	2160
92160	128	128
94208	80	48
96256	5152	1760
98304	6688	3392
100352	2064	2064
102400	48	48
104448	2480	448
106496	11776	6752
108544	7440	3456
110592	1168	1072
112640	48	32
114688	624	480
116736	6288	2496
118784	6400	2992
120832	704	704
122880	112	80
124928	7488	3840
126976	7504	4064
129024	6336	2608
131072	384	272
135168	10720	4096
139264	2656	2544
143360	10192	6048
147456	12352	5216
151552	432	288
155648	14752	7488
159744	9584	9216
163840	21744	14672
167936	265584	261936
172032	2656	1008
176128	11280	5456
180224	944	608
184320	16848	8528
188416	5200	2464
192512	5504	1968
196608	9152	5296
200704	3184	1152
204800	17520	8928
208896	1744	1120
212992	7744	3072
217088	6784	4080
221184	8064	4096
225280	14688	7296
229376	896	544
233472	43824	36736
237568	238016	237280
241664	11552	6544
245760	10240	4592
249856	576	368
253952	29952	11552
258048	26064	10512
262144	57328	22944
270336	14224	6672
278528	17840	9472
286720	11824	4352
294912	15856	9104
303104	17328	11200
311296	8880	4768
319488	9024	4992
327680	2320	2000
335872	42944	41808
344064	419824	419056
352256	226800	226016
360448	2432	864
368640	2752	720
376832	2384	1184
385024	1504	784
393216	1296	720
401408	1616	1040
409600	1952	880
417792	1056	464
425984	1232	928
434176	2096	912
442368	720	416
450560	1728	1216
458752	1440	704
466944	1248	768
475136	1696	1088
483328	1680	496
491520	1120	592
499712	1440	912
507904	1904	880
516096	1008	528
524288	3840	1952
540672	2704	1936
557056	2752	1472
573440	4608	2240
589824	3744	1984
606208	3248	1632
622592	3792	2352
638976	3936	2176
655360	2384	1440
671744	4240	2352
688128	4064	2272
704512	3024	1360
720896	5168	2688
737280	5968	2720
753664	2592	1536
770048	4016	2320
786432	4560	2720
802816	3392	1968
819200	3648	1840
835584	4176	2336
851968	3952	2624
868352	3344	2016
884736	4576	2656
901120	4064	2544
917504	3104	1472
933888	5056	2560
950272	4464	2688
966656	2720	1568
983040	3984	1840
999424	4288	2592
1015808	2656	1376
1032192	4272	2144
1048576	7584	4432
1081344	8976	5232
1114112	6768	4144
1146880	7296	3936
1179648	8448	5088
1212416	7104	4496
1245184	8160	4576
1277952	8784	5248
1310720	6928	4000
1343488	8544	4704
1376256	7760	3904
1409024	11264	8192
1441792	28320	23984
1474560	19408	16448
1507328	9808	7216
1540096	13520	8944
1572864	10368	7408
1605632	11040	7984
1638400	12160	8176
1671168	9344	6448
1703936	108368	105024
1736704	38048	34272
1769472	18384	15376
1802240	8672	5008
1835008	151152	148368
1867776	7584	4608
1900544	9920	6112
1933312	7760	5216
1966080	7888	5296
1998848	8928	5136
2031616	8080	5072
2064384	8384	5024
2097152	17520	10608
2162688	18528	11280
2228224	17776	10816
2293760	16768	10704
2359296	17296	11136
2424832	16464	10464
2490368	12080	7760
2555904	12448	7952
2621440	12256	8176
2686976	28128	24576
2752512	291088	288592
2818048	458080	454480
2883584	177056	173648
2949120	22768	19712
3014656	15920	12848
3080192	15632	12560
3145728	12624	9840
3211264	8192	6032
3276800	8528	6304
3342336	19264	16992
3407872	35840	33696
3473408	32912	31600
3538944	9488	7712
3604480	136128	135440
3670016	139216	138688
3735552	303264	302896
3801088	5456	5312
3866624	5712	5040
3932160	5488	5104
3997696	6176	5792
4063232	5952	5344
4128768	5056	4768
4194304	74368	73424
4325376	12352	11296
4456448	11728	10528
4587520	10912	9872
4718592	12064	11104
4849664	11312	10064
4980736	11760	10736
5111808	10832	10000
5242880	12096	11088
5373952	12704	11472
5505024	12416	11312
5636096	14336	12672
5767168	14720	13648
5898240	13728	12448
6029312	16144	14512
6160384	14112	12880
6291456	16192	14512
6422528	15280	14096
6553600	15504	14064
6684672	16592	15392
6815744	15552	14192
6946816	15056	13520
7077888	16672	15424
7208960	18976	17776
7340032	19616	18208
7471104	19360	18144
7602176	17712	16608
7733248	19408	18256
7864320	18224	16976
7995392	20704	19456
8126464	28496	26976
8257536	28736	26960
8388608	60016	56512
8650752	76656	72464
8912896	77024	72864
9175040	76544	73216
9437184	77232	73424
9699328	78160	74320
9961472	76240	72352
10223616	67312	63968
10485760	72256	68064
10747904	70368	66016
11010048	68240	64544
11272192	67136	62832
11534336	68928	63952
11796480	69648	65008
12058624	69824	64400
12320768	59168	54160
12582912	64256	59696
12845056	122144	118448
13107200	63184	58496
13369344	61456	56816
13631488	66512	61584
13893632	79152	74064
14155776	69824	65264
14417920	59440	54640
14680064	59232	53136
14942208	64576	58672
15204352	56208	50160
15466496	45360	39712
15728640	41344	35136
15990784	43888	36304
16252928	39552	30592
16515072	42432	33824
16777216	82512	65504
17301504	109968	90320
17825792	73200	54224
18350080	61072	40176
18874368	55168	34864
19398656	56208	33680
19922944	55888	33744
20447232	53200	34000
20971520	53968	35248
21495808	69248	49376
22020096	66608	47152
22544384	50096	32448
23068672	46800	30112
23592960	49936	31680
24117248	48864	31616
24641536	46256	28432
25165824	43088	24896
25690112	47664	29536
26214400	46592	25936
26738688	52224	30048
27262976	48256	26528
27787264	45968	24720
28311552	43728	23504
28835840	45936	25376
29360128	46320	23504
29884416	47040	25728
30408704	45008	24256
30932992	47184	26848
31457280	46656	24128
31981568	44064	23696
32505856	49712	24720
33030144	53904	27760
33554432	99904	47840
34603008	104768	53200
35651584	95296	50032
36700160	101584	52672
37748736	101008	55264
38797312	102752	56592
39845888	97536	50064
40894464	92416	47568
41943040	79792	35136
42991616	81680	31840
44040192	79744	34224
45088768	73904	31760
46137344	66880	28912
47185920	72416	32288
48234496	68880	28224
49283072	66528	27104
50331648	70240	26272
51380224	68544	25664
52428800	67920	23168
53477376	59808	18528
54525952	62160	19424
55574528	61248	20736
56623104	52912	19312
57671680	51360	17504
58720256	53360	18928
59768832	57440	21360
60817408	48096	20624
61865984	60272	23760
62914560	67952	24704
63963136	71536	24064
65011712	63424	27264
66060288	53296	29872
67108864	260320	181584
69206016	268464	228160
71303168	488784	398944
73400320	575568	523392
75497472	74400	44816
77594624	67680	44752
79691776	42192	35664
81788928	47792	36496
83886080	35232	33216
85983232	27888	26832
88080384	26320	25728
90177536	228256	173360
92274688	65984	53328
94371840	111856	86688
96468992	79680	79408
98566144	155952	155808
100663296	159152	158800
102760448	62320	61184
104857600	13792	9152
106954752	12416	7808
109051904	9152	7024
111149056	7360	7136
113246208	5952	5824
115343360	8160	5616
117440512	8992	4480
119537664	8560	4000
121634816	5024	3872
123731968	3024	2816
125829120	2368	2256
127926272	5008	1312
130023424	832	640
132120576	752	64
134217728	2816	112
138412032	9680	960
142606336	5152	1392
146800640	16896	0
150994944	3488	32
155189248	9536	5360
159383552	27504	11984
163577856	9760	16
167772160	1664	0
171966464	8000	336
176160768	21568	2144
180355072	1968	1968
184549376	29856	19136
188743680	2016	2016
192937984	2416	2416
197132288	2448	2432
201326592	2224	2208
205520896	2256	2256
209715200	2320	2288
213909504	2064	2016
218103808	4416	144
222298112	1584	16
226492416	7536	1424
230686720	256256	219936
234881024	0	0
239075328	16	0
243269632	144	144
247463936	144	144
251658240	144	144
255852544	32	32
260046848	0	0
264241152	0	0
268435456	5904	272
276824064	736	736
285212672	0	0
293601280	0	0
301989888	2992	304
310378496	12192	1008
318767104	14912	1456
327155712	1728	0
335544320	0	0
343932928	0	0
352321536	0	0
360710144	0	0
369098752	0	0
377487360	0	0
385875968	0	0
394264576	0	0
402653184	384	256
411041792	3456	272
419430400	3584	160
427819008	1536	96
436207616	0	0
444596224	0	0
452984832	0	0
461373440	0	0
469762048	0	0
478150656	0	0
486539264	0	0
494927872	0	0
503316480	0	0
511705088	0	0
520093696	0	0
528482304	0	0
536870912	0	0
553648128	0	0
570425344	0	0
587202560	0	0
603979776	0	0
620756992	0	0
637534208	0	0
654311424	0	0
671088640	0	0
687865856	0	0
704643072	0	0
721420288	0	0
738197504	0	0
754974720	0	0
771751936	0	0
788529152	0	0
805306368	0	0
822083584	0	0
838860800	0	0
855638016	0	0
872415232	0	0
889192448	0	0
905969664	0	0
922746880	0	0
939524096	0	0
956301312	0	0
973078528	0	0
989855744	0	0
1006632960	0	0
1023410176	0	0
1040187392	0	0
1056964608	0	0
1073741824	0	0
1107296256	0	0
1140850688	0	0
1174405120	0	0
1207959552	0	0
1241513984	0	0
1275068416	0	0
1308622848	0	0
1342177280	0	0
1375731712	0	0
1409286144	0	0
1442840576	0	0
1476395008	0	0
1509949440	0	0
1543503872	0	0
1577058304	0	0
1610612736	0	0
1644167168	0	0
1677721600	0	0
1711276032	0	0
1744830464	0	0
1778384896	0	0
1811939328	0	0
1845493760	0	0
1879048192	0	0
1912602624	0	0
1946157056	0	0
1979711488	0	0
2013265920	0	0
2046820352	0	0
2080374784	0	0
2113929216	0	0
2147483648	0	0
2214592512	0	0
2281701376	0	0
2348810240	0	0
2415919104	0	0
2483027968	0	0
2550136832	0	0
2617245696	0	0
2684354560	0	0
2751463424	0	0
2818572288	0	0
2885681152	0	0
2952790016	0	0
3019898880	0	0
3087007744	0	0
3154116608	0	0
3221225472	0	0
3288334336	0	0
3355443200	0	0
3422552064	0	0
3489660928	0	0
3556769792	0	0
3623878656	0	0
3690987520	0	0
3758096384	0	0
3825205248	0	0
3892314112	0	0
3959422976	0	0
4026531840	0	0
4093640704	0	0
4160749568	0	0
4227858432	0	0
~~~~~~~~~~Reuse Distance Profiler output end~~~~~~~~~~

DRAM Statistics
 CHANNEL 0
 RQ ROW_BUFFER_HIT:     443187  ROW_BUFFER_MISS:    9909945
 DBUS AVG_CONGESTED_CYCLE:    3.94957
 WQ ROW_BUFFER_HIT:     475530  ROW_BUFFER_MISS:    2793039  FULL:          0


CPU 0 Branch Prediction Accuracy: 98.2735% MPKI: 0.439787 Average ROB Occupancy at Mispredict: 311.163
Branch type MPKI
BRANCH_DIRECT_JUMP: 7.33333e-05
BRANCH_INDIRECT: 1.66667e-05
BRANCH_CONDITIONAL: 0.439526
BRANCH_DIRECT_CALL: 8.6e-05
BRANCH_INDIRECT_CALL: 5.33333e-06
BRANCH_RETURN: 8e-05

