
*** ChampSim Multicore Out-of-Order Simulator ***

Warmup Instructions: 500000000
Simulation Instructions: 1500000000
Number of CPUs: 1
Off-chip DRAM Size: 4 GiB Channels: 1 Width: 64-bit Data Rate: 3200 MT/s

VirtualMemory physical capacity: 8588881920 num_ppages: 2096895
VirtualMemory page size: 4096 log2_page_size: 12

CPU 0 runs traces/437.leslie3d-134B.champsimtrace.xz
CPU 0 Bimodal branch predictor
Basic BTB sets: 1024 ways: 8 indirect buffer size: 4096 RAS size: 64
Initializing LRU.
Initializing LRU.
Initializing LRU.
Initializing LRU.
Initializing rdLRU.
Initializing LRU.
Initializing LRU.
Heartbeat CPU 0 instructions: 10000004 cycles: 3828560 heartbeat IPC: 2.61195 cumulative IPC: 2.61195 (Simulation time: 0 hr 0 min 57 sec) 
Heartbeat CPU 0 instructions: 20000002 cycles: 7653225 heartbeat IPC: 2.61461 cumulative IPC: 2.61328 (Simulation time: 0 hr 1 min 50 sec) 
Heartbeat CPU 0 instructions: 30000002 cycles: 11476669 heartbeat IPC: 2.61544 cumulative IPC: 2.614 (Simulation time: 0 hr 2 min 43 sec) 
Heartbeat CPU 0 instructions: 40000002 cycles: 15303715 heartbeat IPC: 2.61298 cumulative IPC: 2.61374 (Simulation time: 0 hr 3 min 36 sec) 
Heartbeat CPU 0 instructions: 50000003 cycles: 19132595 heartbeat IPC: 2.61173 cumulative IPC: 2.61334 (Simulation time: 0 hr 4 min 29 sec) 
Heartbeat CPU 0 instructions: 60000000 cycles: 22959619 heartbeat IPC: 2.613 cumulative IPC: 2.61328 (Simulation time: 0 hr 5 min 22 sec) 
Heartbeat CPU 0 instructions: 70000003 cycles: 26786052 heartbeat IPC: 2.6134 cumulative IPC: 2.6133 (Simulation time: 0 hr 6 min 15 sec) 
Heartbeat CPU 0 instructions: 80000001 cycles: 30608122 heartbeat IPC: 2.61638 cumulative IPC: 2.61369 (Simulation time: 0 hr 7 min 7 sec) 
Heartbeat CPU 0 instructions: 90000000 cycles: 34436264 heartbeat IPC: 2.61223 cumulative IPC: 2.61352 (Simulation time: 0 hr 8 min 0 sec) 
Heartbeat CPU 0 instructions: 100000000 cycles: 38264017 heartbeat IPC: 2.6125 cumulative IPC: 2.61342 (Simulation time: 0 hr 8 min 54 sec) 
Heartbeat CPU 0 instructions: 110000003 cycles: 42092238 heartbeat IPC: 2.61218 cumulative IPC: 2.61331 (Simulation time: 0 hr 9 min 47 sec) 
Heartbeat CPU 0 instructions: 120000003 cycles: 45918872 heartbeat IPC: 2.61326 cumulative IPC: 2.6133 (Simulation time: 0 hr 10 min 39 sec) 
Heartbeat CPU 0 instructions: 130000003 cycles: 49739734 heartbeat IPC: 2.61721 cumulative IPC: 2.6136 (Simulation time: 0 hr 11 min 32 sec) 
Heartbeat CPU 0 instructions: 140000000 cycles: 53568073 heartbeat IPC: 2.6121 cumulative IPC: 2.6135 (Simulation time: 0 hr 12 min 24 sec) 
Heartbeat CPU 0 instructions: 150000001 cycles: 57302304 heartbeat IPC: 2.67793 cumulative IPC: 2.6177 (Simulation time: 0 hr 13 min 16 sec) 
Heartbeat CPU 0 instructions: 160000003 cycles: 60779565 heartbeat IPC: 2.87583 cumulative IPC: 2.63246 (Simulation time: 0 hr 14 min 6 sec) 
Heartbeat CPU 0 instructions: 170000002 cycles: 64257192 heartbeat IPC: 2.87552 cumulative IPC: 2.64562 (Simulation time: 0 hr 14 min 56 sec) 
Heartbeat CPU 0 instructions: 180000000 cycles: 67735653 heartbeat IPC: 2.87483 cumulative IPC: 2.65739 (Simulation time: 0 hr 15 min 46 sec) 
Heartbeat CPU 0 instructions: 190000004 cycles: 71213367 heartbeat IPC: 2.87545 cumulative IPC: 2.66804 (Simulation time: 0 hr 16 min 37 sec) 
Heartbeat CPU 0 instructions: 200000003 cycles: 74999323 heartbeat IPC: 2.64134 cumulative IPC: 2.66669 (Simulation time: 0 hr 17 min 33 sec) 
Heartbeat CPU 0 instructions: 210000002 cycles: 78685701 heartbeat IPC: 2.71269 cumulative IPC: 2.66885 (Simulation time: 0 hr 18 min 26 sec) 
Heartbeat CPU 0 instructions: 220000002 cycles: 82145666 heartbeat IPC: 2.8902 cumulative IPC: 2.67817 (Simulation time: 0 hr 19 min 10 sec) 
Heartbeat CPU 0 instructions: 230000001 cycles: 85728655 heartbeat IPC: 2.79097 cumulative IPC: 2.68288 (Simulation time: 0 hr 19 min 57 sec) 
Heartbeat CPU 0 instructions: 240000001 cycles: 89311643 heartbeat IPC: 2.79097 cumulative IPC: 2.68722 (Simulation time: 0 hr 20 min 44 sec) 
Heartbeat CPU 0 instructions: 250000003 cycles: 92894632 heartbeat IPC: 2.79097 cumulative IPC: 2.69122 (Simulation time: 0 hr 21 min 31 sec) 
Heartbeat CPU 0 instructions: 260000003 cycles: 96477624 heartbeat IPC: 2.79096 cumulative IPC: 2.69493 (Simulation time: 0 hr 22 min 17 sec) 
Heartbeat CPU 0 instructions: 270000000 cycles: 100060609 heartbeat IPC: 2.79097 cumulative IPC: 2.69836 (Simulation time: 0 hr 23 min 4 sec) 
Heartbeat CPU 0 instructions: 280000000 cycles: 103643603 heartbeat IPC: 2.79096 cumulative IPC: 2.70157 (Simulation time: 0 hr 23 min 51 sec) 
Heartbeat CPU 0 instructions: 290000001 cycles: 107622958 heartbeat IPC: 2.51297 cumulative IPC: 2.69459 (Simulation time: 0 hr 25 min 1 sec) 
Heartbeat CPU 0 instructions: 300000000 cycles: 111560708 heartbeat IPC: 2.53952 cumulative IPC: 2.68912 (Simulation time: 0 hr 25 min 53 sec) 
Heartbeat CPU 0 instructions: 310000003 cycles: 115616963 heartbeat IPC: 2.46533 cumulative IPC: 2.68127 (Simulation time: 0 hr 27 min 4 sec) 
Heartbeat CPU 0 instructions: 320000000 cycles: 120091307 heartbeat IPC: 2.23496 cumulative IPC: 2.66464 (Simulation time: 0 hr 28 min 41 sec) 
Heartbeat CPU 0 instructions: 330000004 cycles: 124565661 heartbeat IPC: 2.23496 cumulative IPC: 2.64921 (Simulation time: 0 hr 29 min 52 sec) 
Heartbeat CPU 0 instructions: 340000001 cycles: 129039997 heartbeat IPC: 2.23497 cumulative IPC: 2.63484 (Simulation time: 0 hr 31 min 24 sec) 
Heartbeat CPU 0 instructions: 350000003 cycles: 133223261 heartbeat IPC: 2.39048 cumulative IPC: 2.62717 (Simulation time: 0 hr 32 min 27 sec) 
Heartbeat CPU 0 instructions: 360000000 cycles: 137012904 heartbeat IPC: 2.63877 cumulative IPC: 2.62749 (Simulation time: 0 hr 33 min 48 sec) 
Heartbeat CPU 0 instructions: 370000001 cycles: 140800250 heartbeat IPC: 2.64037 cumulative IPC: 2.62784 (Simulation time: 0 hr 34 min 56 sec) 
Heartbeat CPU 0 instructions: 380000004 cycles: 144588584 heartbeat IPC: 2.63968 cumulative IPC: 2.62815 (Simulation time: 0 hr 35 min 52 sec) 
Heartbeat CPU 0 instructions: 390000000 cycles: 148378233 heartbeat IPC: 2.63877 cumulative IPC: 2.62842 (Simulation time: 0 hr 36 min 47 sec) 
Heartbeat CPU 0 instructions: 400000003 cycles: 152165557 heartbeat IPC: 2.64039 cumulative IPC: 2.62872 (Simulation time: 0 hr 37 min 43 sec) 
Heartbeat CPU 0 instructions: 410000001 cycles: 155953913 heartbeat IPC: 2.63967 cumulative IPC: 2.62898 (Simulation time: 0 hr 38 min 38 sec) 
Heartbeat CPU 0 instructions: 420000002 cycles: 159743560 heartbeat IPC: 2.63877 cumulative IPC: 2.62921 (Simulation time: 0 hr 39 min 31 sec) 
Heartbeat CPU 0 instructions: 430000000 cycles: 163530862 heartbeat IPC: 2.6404 cumulative IPC: 2.62947 (Simulation time: 0 hr 40 min 24 sec) 
Heartbeat CPU 0 instructions: 440000000 cycles: 167319240 heartbeat IPC: 2.63965 cumulative IPC: 2.6297 (Simulation time: 0 hr 41 min 17 sec) 
Heartbeat CPU 0 instructions: 450000000 cycles: 171108891 heartbeat IPC: 2.63877 cumulative IPC: 2.6299 (Simulation time: 0 hr 42 min 16 sec) 
Heartbeat CPU 0 instructions: 460000002 cycles: 174896173 heartbeat IPC: 2.64042 cumulative IPC: 2.63013 (Simulation time: 0 hr 43 min 56 sec) 
Heartbeat CPU 0 instructions: 470000000 cycles: 178684568 heartbeat IPC: 2.63964 cumulative IPC: 2.63033 (Simulation time: 0 hr 45 min 35 sec) 
Heartbeat CPU 0 instructions: 480000002 cycles: 182474214 heartbeat IPC: 2.63877 cumulative IPC: 2.63051 (Simulation time: 0 hr 47 min 8 sec) 
Heartbeat CPU 0 instructions: 490000003 cycles: 186261481 heartbeat IPC: 2.64043 cumulative IPC: 2.63071 (Simulation time: 0 hr 48 min 30 sec) 
Heartbeat CPU 0 instructions: 500000000 cycles: 190064985 heartbeat IPC: 2.62915 cumulative IPC: 2.63068 (Simulation time: 0 hr 49 min 20 sec) 

Warmup complete CPU 0 instructions: 500000005 cycles: 190064988 (Simulation time: 0 hr 49 min 20 sec) 

Heartbeat CPU 0 instructions: 510000001 cycles: 198312292 heartbeat IPC: 1.21252 cumulative IPC: 1.21252 (Simulation time: 0 hr 50 min 56 sec) 
Heartbeat CPU 0 instructions: 520000000 cycles: 206511636 heartbeat IPC: 1.21961 cumulative IPC: 1.21605 (Simulation time: 0 hr 53 min 26 sec) 
Heartbeat CPU 0 instructions: 530000003 cycles: 214665868 heartbeat IPC: 1.22636 cumulative IPC: 1.21947 (Simulation time: 0 hr 55 min 21 sec) 
Heartbeat CPU 0 instructions: 540000004 cycles: 222903343 heartbeat IPC: 1.21396 cumulative IPC: 1.21809 (Simulation time: 0 hr 56 min 46 sec) 
Heartbeat CPU 0 instructions: 550000004 cycles: 231085800 heartbeat IPC: 1.22213 cumulative IPC: 1.21889 (Simulation time: 0 hr 58 min 15 sec) 
Heartbeat CPU 0 instructions: 560000002 cycles: 241549448 heartbeat IPC: 0.955689 cumulative IPC: 1.1654 (Simulation time: 0 hr 59 min 56 sec) 
Heartbeat CPU 0 instructions: 570000004 cycles: 253663516 heartbeat IPC: 0.825487 cumulative IPC: 1.10065 (Simulation time: 1 hr 1 min 50 sec) 
Heartbeat CPU 0 instructions: 580000000 cycles: 267064004 heartbeat IPC: 0.746241 cumulative IPC: 1.03897 (Simulation time: 1 hr 4 min 0 sec) 
Heartbeat CPU 0 instructions: 590000000 cycles: 283444015 heartbeat IPC: 0.6105 cumulative IPC: 0.963814 (Simulation time: 1 hr 7 min 5 sec) 
Heartbeat CPU 0 instructions: 600000004 cycles: 299767865 heartbeat IPC: 0.612601 cumulative IPC: 0.911553 (Simulation time: 1 hr 10 min 48 sec) 
Heartbeat CPU 0 instructions: 610000000 cycles: 316070159 heartbeat IPC: 0.61341 cumulative IPC: 0.87298 (Simulation time: 1 hr 13 min 8 sec) 
Heartbeat CPU 0 instructions: 620000001 cycles: 331572723 heartbeat IPC: 0.645055 cumulative IPC: 0.84801 (Simulation time: 1 hr 15 min 46 sec) 
Heartbeat CPU 0 instructions: 630000003 cycles: 340550660 heartbeat IPC: 1.11384 cumulative IPC: 0.86387 (Simulation time: 1 hr 17 min 32 sec) 
Heartbeat CPU 0 instructions: 640000003 cycles: 349738297 heartbeat IPC: 1.08842 cumulative IPC: 0.87679 (Simulation time: 1 hr 19 min 26 sec) 
Heartbeat CPU 0 instructions: 650000000 cycles: 358949888 heartbeat IPC: 1.08559 cumulative IPC: 0.888179 (Simulation time: 1 hr 21 min 5 sec) 
Heartbeat CPU 0 instructions: 660000003 cycles: 368180471 heartbeat IPC: 1.08336 cumulative IPC: 0.898294 (Simulation time: 1 hr 22 min 58 sec) 
Heartbeat CPU 0 instructions: 670000000 cycles: 377478118 heartbeat IPC: 1.07554 cumulative IPC: 0.907087 (Simulation time: 1 hr 24 min 33 sec) 
Heartbeat CPU 0 instructions: 680000003 cycles: 386734515 heartbeat IPC: 1.08033 cumulative IPC: 0.915241 (Simulation time: 1 hr 26 min 7 sec) 
Heartbeat CPU 0 instructions: 690000000 cycles: 396017842 heartbeat IPC: 1.0772 cumulative IPC: 0.922541 (Simulation time: 1 hr 27 min 41 sec) 
Heartbeat CPU 0 instructions: 700000000 cycles: 405207949 heartbeat IPC: 1.08813 cumulative IPC: 0.929614 (Simulation time: 1 hr 29 min 20 sec) 
Heartbeat CPU 0 instructions: 710000000 cycles: 414435845 heartbeat IPC: 1.08367 cumulative IPC: 0.93595 (Simulation time: 1 hr 30 min 59 sec) 
Heartbeat CPU 0 instructions: 720000001 cycles: 423744553 heartbeat IPC: 1.07426 cumulative IPC: 0.94146 (Simulation time: 1 hr 32 min 40 sec) 
Heartbeat CPU 0 instructions: 730000003 cycles: 432963270 heartbeat IPC: 1.08475 cumulative IPC: 0.946898 (Simulation time: 1 hr 34 min 20 sec) 
Heartbeat CPU 0 instructions: 740000003 cycles: 442119168 heartbeat IPC: 1.09219 cumulative IPC: 0.952176 (Simulation time: 1 hr 36 min 10 sec) 
Heartbeat CPU 0 instructions: 750000003 cycles: 451360337 heartbeat IPC: 1.08211 cumulative IPC: 0.956772 (Simulation time: 1 hr 37 min 43 sec) 
Heartbeat CPU 0 instructions: 760000000 cycles: 460544853 heartbeat IPC: 1.08879 cumulative IPC: 0.961255 (Simulation time: 1 hr 39 min 16 sec) 
Heartbeat CPU 0 instructions: 770000003 cycles: 469111136 heartbeat IPC: 1.16737 cumulative IPC: 0.967582 (Simulation time: 1 hr 41 min 3 sec) 
Heartbeat CPU 0 instructions: 780000002 cycles: 477598136 heartbeat IPC: 1.17827 cumulative IPC: 0.973801 (Simulation time: 1 hr 42 min 31 sec) 
Heartbeat CPU 0 instructions: 790000000 cycles: 485995514 heartbeat IPC: 1.19085 cumulative IPC: 0.97996 (Simulation time: 1 hr 43 min 59 sec) 
Heartbeat CPU 0 instructions: 800000000 cycles: 494345587 heartbeat IPC: 1.19759 cumulative IPC: 0.985932 (Simulation time: 1 hr 45 min 27 sec) 
Heartbeat CPU 0 instructions: 810000004 cycles: 502676711 heartbeat IPC: 1.20032 cumulative IPC: 0.991645 (Simulation time: 1 hr 46 min 54 sec) 
Heartbeat CPU 0 instructions: 820000000 cycles: 511921399 heartbeat IPC: 1.0817 cumulative IPC: 0.994232 (Simulation time: 1 hr 48 min 29 sec) 
Heartbeat CPU 0 instructions: 830000004 cycles: 524214312 heartbeat IPC: 0.813477 cumulative IPC: 0.987582 (Simulation time: 1 hr 50 min 47 sec) 
Heartbeat CPU 0 instructions: 840000004 cycles: 537861929 heartbeat IPC: 0.732729 cumulative IPC: 0.977582 (Simulation time: 1 hr 53 min 55 sec) 
Heartbeat CPU 0 instructions: 850000003 cycles: 554526152 heartbeat IPC: 0.600088 cumulative IPC: 0.960322 (Simulation time: 1 hr 56 min 18 sec) 
Heartbeat CPU 0 instructions: 860000003 cycles: 570832882 heartbeat IPC: 0.613244 cumulative IPC: 0.945458 (Simulation time: 1 hr 58 min 38 sec) 
Heartbeat CPU 0 instructions: 870000002 cycles: 587102878 heartbeat IPC: 0.614628 cumulative IPC: 0.931901 (Simulation time: 2 hr 0 min 59 sec) 
Heartbeat CPU 0 instructions: 880000001 cycles: 595337554 heartbeat IPC: 1.21438 cumulative IPC: 0.937641 (Simulation time: 2 hr 2 min 25 sec) 
Heartbeat CPU 0 instructions: 890000000 cycles: 602438912 heartbeat IPC: 1.40818 cumulative IPC: 0.945744 (Simulation time: 2 hr 3 min 42 sec) 
Heartbeat CPU 0 instructions: 900000003 cycles: 609557538 heartbeat IPC: 1.40477 cumulative IPC: 0.953533 (Simulation time: 2 hr 5 min 0 sec) 
Heartbeat CPU 0 instructions: 910000003 cycles: 616717639 heartbeat IPC: 1.39663 cumulative IPC: 0.960969 (Simulation time: 2 hr 6 min 18 sec) 
Heartbeat CPU 0 instructions: 920000003 cycles: 623837589 heartbeat IPC: 1.4045 cumulative IPC: 0.968249 (Simulation time: 2 hr 7 min 40 sec) 
Heartbeat CPU 0 instructions: 930000004 cycles: 630977564 heartbeat IPC: 1.40057 cumulative IPC: 0.97525 (Simulation time: 2 hr 9 min 6 sec) 
Heartbeat CPU 0 instructions: 940000002 cycles: 638053815 heartbeat IPC: 1.41318 cumulative IPC: 0.982167 (Simulation time: 2 hr 10 min 25 sec) 
Heartbeat CPU 0 instructions: 950000004 cycles: 645165815 heartbeat IPC: 1.40607 cumulative IPC: 0.988792 (Simulation time: 2 hr 11 min 45 sec) 
Heartbeat CPU 0 instructions: 960000000 cycles: 652250587 heartbeat IPC: 1.41148 cumulative IPC: 0.995271 (Simulation time: 2 hr 13 min 4 sec) 
Heartbeat CPU 0 instructions: 970000001 cycles: 659398162 heartbeat IPC: 1.39908 cumulative IPC: 1.00142 (Simulation time: 2 hr 14 min 24 sec) 
Heartbeat CPU 0 instructions: 980000000 cycles: 666541422 heartbeat IPC: 1.39992 cumulative IPC: 1.0074 (Simulation time: 2 hr 15 min 44 sec) 
Heartbeat CPU 0 instructions: 990000002 cycles: 673663419 heartbeat IPC: 1.4041 cumulative IPC: 1.01324 (Simulation time: 2 hr 17 min 5 sec) 
Heartbeat CPU 0 instructions: 1000000002 cycles: 680792397 heartbeat IPC: 1.40273 cumulative IPC: 1.0189 (Simulation time: 2 hr 18 min 42 sec) 
Heartbeat CPU 0 instructions: 1010000000 cycles: 687924462 heartbeat IPC: 1.40212 cumulative IPC: 1.02439 (Simulation time: 2 hr 20 min 52 sec) 
Heartbeat CPU 0 instructions: 1020000003 cycles: 695056236 heartbeat IPC: 1.40218 cumulative IPC: 1.02972 (Simulation time: 2 hr 22 min 10 sec) 
Heartbeat CPU 0 instructions: 1030000002 cycles: 706463841 heartbeat IPC: 0.876608 cumulative IPC: 1.02634 (Simulation time: 2 hr 23 min 53 sec) 
Heartbeat CPU 0 instructions: 1040000004 cycles: 721889898 heartbeat IPC: 0.648254 cumulative IPC: 1.01537 (Simulation time: 2 hr 25 min 57 sec) 
Heartbeat CPU 0 instructions: 1050000001 cycles: 737305374 heartbeat IPC: 0.648699 cumulative IPC: 1.00504 (Simulation time: 2 hr 28 min 2 sec) 
Heartbeat CPU 0 instructions: 1060000004 cycles: 752737972 heartbeat IPC: 0.647979 cumulative IPC: 0.99525 (Simulation time: 2 hr 30 min 14 sec) 
Heartbeat CPU 0 instructions: 1070000004 cycles: 768158903 heartbeat IPC: 0.648469 cumulative IPC: 0.985999 (Simulation time: 2 hr 32 min 21 sec) 
Heartbeat CPU 0 instructions: 1080000001 cycles: 792330531 heartbeat IPC: 0.413708 cumulative IPC: 0.96303 (Simulation time: 2 hr 35 min 30 sec) 
Heartbeat CPU 0 instructions: 1090000002 cycles: 805853499 heartbeat IPC: 0.739483 cumulative IPC: 0.958121 (Simulation time: 2 hr 37 min 31 sec) 
Heartbeat CPU 0 instructions: 1100000003 cycles: 813498310 heartbeat IPC: 1.30808 cumulative IPC: 0.962412 (Simulation time: 2 hr 38 min 52 sec) 
Heartbeat CPU 0 instructions: 1110000004 cycles: 821101645 heartbeat IPC: 1.31521 cumulative IPC: 0.966663 (Simulation time: 2 hr 40 min 12 sec) 
Heartbeat CPU 0 instructions: 1120000000 cycles: 828700730 heartbeat IPC: 1.31595 cumulative IPC: 0.970819 (Simulation time: 2 hr 41 min 33 sec) 
Heartbeat CPU 0 instructions: 1130000003 cycles: 836301086 heartbeat IPC: 1.31573 cumulative IPC: 0.974876 (Simulation time: 2 hr 42 min 53 sec) 
Heartbeat CPU 0 instructions: 1140000001 cycles: 843891878 heartbeat IPC: 1.31739 cumulative IPC: 0.978852 (Simulation time: 2 hr 44 min 13 sec) 
Heartbeat CPU 0 instructions: 1150000004 cycles: 851498279 heartbeat IPC: 1.31468 cumulative IPC: 0.982714 (Simulation time: 2 hr 45 min 32 sec) 
Heartbeat CPU 0 instructions: 1160000000 cycles: 861152320 heartbeat IPC: 1.03584 cumulative IPC: 0.983479 (Simulation time: 2 hr 47 min 4 sec) 
Heartbeat CPU 0 instructions: 1170000000 cycles: 873534372 heartbeat IPC: 0.807621 cumulative IPC: 0.980293 (Simulation time: 2 hr 48 min 53 sec) 
Heartbeat CPU 0 instructions: 1180000002 cycles: 886757269 heartbeat IPC: 0.756264 cumulative IPC: 0.976041 (Simulation time: 2 hr 50 min 47 sec) 
Heartbeat CPU 0 instructions: 1190000004 cycles: 902904754 heartbeat IPC: 0.619292 cumulative IPC: 0.967959 (Simulation time: 2 hr 53 min 6 sec) 
Heartbeat CPU 0 instructions: 1200000003 cycles: 919336189 heartbeat IPC: 0.60859 cumulative IPC: 0.959862 (Simulation time: 2 hr 55 min 30 sec) 
Heartbeat CPU 0 instructions: 1210000003 cycles: 935780491 heartbeat IPC: 0.608113 cumulative IPC: 0.952106 (Simulation time: 2 hr 57 min 54 sec) 
Heartbeat CPU 0 instructions: 1220000004 cycles: 952248436 heartbeat IPC: 0.60724 cumulative IPC: 0.944654 (Simulation time: 3 hr 0 min 18 sec) 
Heartbeat CPU 0 instructions: 1230000002 cycles: 961107116 heartbeat IPC: 1.12884 cumulative IPC: 0.946771 (Simulation time: 3 hr 1 min 46 sec) 
Heartbeat CPU 0 instructions: 1240000002 cycles: 969577825 heartbeat IPC: 1.18054 cumulative IPC: 0.949311 (Simulation time: 3 hr 3 min 11 sec) 
Heartbeat CPU 0 instructions: 1250000000 cycles: 978076049 heartbeat IPC: 1.17672 cumulative IPC: 0.951763 (Simulation time: 3 hr 4 min 36 sec) 
Heartbeat CPU 0 instructions: 1260000001 cycles: 986530223 heartbeat IPC: 1.18285 cumulative IPC: 0.954216 (Simulation time: 3 hr 6 min 1 sec) 
Heartbeat CPU 0 instructions: 1270000001 cycles: 995005180 heartbeat IPC: 1.17995 cumulative IPC: 0.956593 (Simulation time: 3 hr 7 min 25 sec) 
Heartbeat CPU 0 instructions: 1280000004 cycles: 1003470494 heartbeat IPC: 1.18129 cumulative IPC: 0.958931 (Simulation time: 3 hr 8 min 50 sec) 
Heartbeat CPU 0 instructions: 1290000002 cycles: 1011904713 heartbeat IPC: 1.18565 cumulative IPC: 0.961258 (Simulation time: 3 hr 10 min 15 sec) 
Heartbeat CPU 0 instructions: 1300000003 cycles: 1020399022 heartbeat IPC: 1.17726 cumulative IPC: 0.963468 (Simulation time: 3 hr 11 min 40 sec) 
Heartbeat CPU 0 instructions: 1310000004 cycles: 1028895845 heartbeat IPC: 1.17691 cumulative IPC: 0.96563 (Simulation time: 3 hr 13 min 5 sec) 
Heartbeat CPU 0 instructions: 1320000002 cycles: 1037359772 heartbeat IPC: 1.18148 cumulative IPC: 0.967786 (Simulation time: 3 hr 14 min 30 sec) 
Heartbeat CPU 0 instructions: 1330000001 cycles: 1045849325 heartbeat IPC: 1.17792 cumulative IPC: 0.969871 (Simulation time: 3 hr 15 min 56 sec) 
Heartbeat CPU 0 instructions: 1340000004 cycles: 1054349287 heartbeat IPC: 1.17648 cumulative IPC: 0.971902 (Simulation time: 3 hr 17 min 22 sec) 
Heartbeat CPU 0 instructions: 1350000003 cycles: 1062816982 heartbeat IPC: 1.18096 cumulative IPC: 0.973931 (Simulation time: 3 hr 18 min 47 sec) 
Heartbeat CPU 0 instructions: 1360000000 cycles: 1071300574 heartbeat IPC: 1.17875 cumulative IPC: 0.975902 (Simulation time: 3 hr 20 min 12 sec) 
Heartbeat CPU 0 instructions: 1370000000 cycles: 1079178478 heartbeat IPC: 1.26937 cumulative IPC: 0.978503 (Simulation time: 3 hr 21 min 32 sec) 
Heartbeat CPU 0 instructions: 1380000002 cycles: 1087589017 heartbeat IPC: 1.18898 cumulative IPC: 0.980475 (Simulation time: 3 hr 22 min 54 sec) 
Heartbeat CPU 0 instructions: 1390000002 cycles: 1095551934 heartbeat IPC: 1.25582 cumulative IPC: 0.982897 (Simulation time: 3 hr 24 min 13 sec) 
Heartbeat CPU 0 instructions: 1400000001 cycles: 1103497514 heartbeat IPC: 1.25856 cumulative IPC: 0.985294 (Simulation time: 3 hr 25 min 32 sec) 
Heartbeat CPU 0 instructions: 1410000002 cycles: 1111413999 heartbeat IPC: 1.26319 cumulative IPC: 0.987682 (Simulation time: 3 hr 26 min 52 sec) 
Heartbeat CPU 0 instructions: 1420000004 cycles: 1119399341 heartbeat IPC: 1.25229 cumulative IPC: 0.989956 (Simulation time: 3 hr 28 min 12 sec) 
Heartbeat CPU 0 instructions: 1430000003 cycles: 1127479053 heartbeat IPC: 1.23767 cumulative IPC: 0.992091 (Simulation time: 3 hr 29 min 33 sec) 
Heartbeat CPU 0 instructions: 1440000002 cycles: 1139984637 heartbeat IPC: 0.799643 cumulative IPC: 0.989557 (Simulation time: 3 hr 31 min 23 sec) 
Heartbeat CPU 0 instructions: 1450000003 cycles: 1152544659 heartbeat IPC: 0.796177 cumulative IPC: 0.987034 (Simulation time: 3 hr 33 min 14 sec) 
Heartbeat CPU 0 instructions: 1460000002 cycles: 1167726050 heartbeat IPC: 0.658701 cumulative IPC: 0.981935 (Simulation time: 3 hr 35 min 25 sec) 
Heartbeat CPU 0 instructions: 1470000003 cycles: 1184109225 heartbeat IPC: 0.610382 cumulative IPC: 0.975812 (Simulation time: 3 hr 37 min 47 sec) 
Heartbeat CPU 0 instructions: 1480000002 cycles: 1200391205 heartbeat IPC: 0.614176 cumulative IPC: 0.969984 (Simulation time: 3 hr 40 min 8 sec) 
Heartbeat CPU 0 instructions: 1490000002 cycles: 1216686379 heartbeat IPC: 0.613679 cumulative IPC: 0.964328 (Simulation time: 3 hr 42 min 29 sec) 
Heartbeat CPU 0 instructions: 1500000003 cycles: 1228432087 heartbeat IPC: 0.851375 cumulative IPC: 0.963051 (Simulation time: 3 hr 44 min 19 sec) 
Heartbeat CPU 0 instructions: 1510000004 cycles: 1237600035 heartbeat IPC: 1.09076 cumulative IPC: 0.964168 (Simulation time: 3 hr 45 min 51 sec) 
Heartbeat CPU 0 instructions: 1520000001 cycles: 1246812739 heartbeat IPC: 1.08546 cumulative IPC: 0.965226 (Simulation time: 3 hr 47 min 23 sec) 
Heartbeat CPU 0 instructions: 1530000000 cycles: 1255929800 heartbeat IPC: 1.09684 cumulative IPC: 0.966351 (Simulation time: 3 hr 48 min 54 sec) 
Heartbeat CPU 0 instructions: 1540000002 cycles: 1265119235 heartbeat IPC: 1.08821 cumulative IPC: 0.967393 (Simulation time: 3 hr 50 min 25 sec) 
Heartbeat CPU 0 instructions: 1550000001 cycles: 1274313014 heartbeat IPC: 1.08769 cumulative IPC: 0.968413 (Simulation time: 3 hr 51 min 58 sec) 
Heartbeat CPU 0 instructions: 1560000003 cycles: 1283508573 heartbeat IPC: 1.08748 cumulative IPC: 0.969414 (Simulation time: 3 hr 53 min 29 sec) 
Heartbeat CPU 0 instructions: 1570000001 cycles: 1292581800 heartbeat IPC: 1.10214 cumulative IPC: 0.970507 (Simulation time: 3 hr 54 min 59 sec) 
Heartbeat CPU 0 instructions: 1580000002 cycles: 1301721824 heartbeat IPC: 1.09409 cumulative IPC: 0.971523 (Simulation time: 3 hr 56 min 30 sec) 
Heartbeat CPU 0 instructions: 1590000004 cycles: 1310996526 heartbeat IPC: 1.0782 cumulative IPC: 0.972405 (Simulation time: 3 hr 58 min 2 sec) 
Heartbeat CPU 0 instructions: 1600000002 cycles: 1320272333 heartbeat IPC: 1.07807 cumulative IPC: 0.973273 (Simulation time: 3 hr 59 min 34 sec) 
Heartbeat CPU 0 instructions: 1610000004 cycles: 1329497935 heartbeat IPC: 1.08394 cumulative IPC: 0.974169 (Simulation time: 4 hr 1 min 5 sec) 
Heartbeat CPU 0 instructions: 1620000000 cycles: 1338658267 heartbeat IPC: 1.09166 cumulative IPC: 0.975106 (Simulation time: 4 hr 2 min 36 sec) 
Heartbeat CPU 0 instructions: 1630000001 cycles: 1347928126 heartbeat IPC: 1.07877 cumulative IPC: 0.975936 (Simulation time: 4 hr 4 min 8 sec) 
Heartbeat CPU 0 instructions: 1640000000 cycles: 1357156022 heartbeat IPC: 1.08367 cumulative IPC: 0.976788 (Simulation time: 4 hr 5 min 39 sec) 
Heartbeat CPU 0 instructions: 1650000004 cycles: 1365589061 heartbeat IPC: 1.18581 cumulative IPC: 0.978287 (Simulation time: 4 hr 7 min 3 sec) 
Heartbeat CPU 0 instructions: 1660000003 cycles: 1374214198 heartbeat IPC: 1.1594 cumulative IPC: 0.979606 (Simulation time: 4 hr 8 min 27 sec) 
Heartbeat CPU 0 instructions: 1670000003 cycles: 1382819510 heartbeat IPC: 1.16207 cumulative IPC: 0.980923 (Simulation time: 4 hr 9 min 52 sec) 
Heartbeat CPU 0 instructions: 1680000001 cycles: 1391399981 heartbeat IPC: 1.16544 cumulative IPC: 0.982241 (Simulation time: 4 hr 11 min 17 sec) 
Heartbeat CPU 0 instructions: 1690000000 cycles: 1399997960 heartbeat IPC: 1.16306 cumulative IPC: 0.983526 (Simulation time: 4 hr 12 min 42 sec) 
Heartbeat CPU 0 instructions: 1700000003 cycles: 1411787355 heartbeat IPC: 0.84822 cumulative IPC: 0.98222 (Simulation time: 4 hr 14 min 30 sec) 
Heartbeat CPU 0 instructions: 1710000004 cycles: 1424389244 heartbeat IPC: 0.793532 cumulative IPC: 0.980293 (Simulation time: 4 hr 16 min 21 sec) 
Heartbeat CPU 0 instructions: 1720000001 cycles: 1440065656 heartbeat IPC: 0.637901 cumulative IPC: 0.975999 (Simulation time: 4 hr 18 min 35 sec) 
Heartbeat CPU 0 instructions: 1730000003 cycles: 1456358118 heartbeat IPC: 0.613781 cumulative IPC: 0.971339 (Simulation time: 4 hr 20 min 55 sec) 
Heartbeat CPU 0 instructions: 1740000000 cycles: 1472634310 heartbeat IPC: 0.614394 cumulative IPC: 0.966809 (Simulation time: 4 hr 23 min 15 sec) 
Heartbeat CPU 0 instructions: 1750000000 cycles: 1485173392 heartbeat IPC: 0.797507 cumulative IPC: 0.96517 (Simulation time: 4 hr 25 min 10 sec) 
Heartbeat CPU 0 instructions: 1760000000 cycles: 1492286060 heartbeat IPC: 1.40594 cumulative IPC: 0.967578 (Simulation time: 4 hr 26 min 28 sec) 
Heartbeat CPU 0 instructions: 1770000001 cycles: 1499397463 heartbeat IPC: 1.40619 cumulative IPC: 0.96996 (Simulation time: 4 hr 27 min 46 sec) 
Heartbeat CPU 0 instructions: 1780000000 cycles: 1506520524 heartbeat IPC: 1.40389 cumulative IPC: 0.972308 (Simulation time: 4 hr 29 min 4 sec) 
Heartbeat CPU 0 instructions: 1790000003 cycles: 1513654714 heartbeat IPC: 1.4017 cumulative IPC: 0.974622 (Simulation time: 4 hr 30 min 22 sec) 
Heartbeat CPU 0 instructions: 1800000001 cycles: 1520786768 heartbeat IPC: 1.40212 cumulative IPC: 0.976913 (Simulation time: 4 hr 31 min 40 sec) 
Heartbeat CPU 0 instructions: 1810000000 cycles: 1527920220 heartbeat IPC: 1.40185 cumulative IPC: 0.979179 (Simulation time: 4 hr 32 min 58 sec) 
Heartbeat CPU 0 instructions: 1820000002 cycles: 1535039323 heartbeat IPC: 1.40467 cumulative IPC: 0.981431 (Simulation time: 4 hr 34 min 17 sec) 
Heartbeat CPU 0 instructions: 1830000003 cycles: 1542109467 heartbeat IPC: 1.4144 cumulative IPC: 0.983695 (Simulation time: 4 hr 35 min 35 sec) 
Heartbeat CPU 0 instructions: 1840000000 cycles: 1549238942 heartbeat IPC: 1.40263 cumulative IPC: 0.985893 (Simulation time: 4 hr 36 min 53 sec) 
Heartbeat CPU 0 instructions: 1850000003 cycles: 1556380903 heartbeat IPC: 1.40018 cumulative IPC: 0.988058 (Simulation time: 4 hr 38 min 11 sec) 
Heartbeat CPU 0 instructions: 1860000001 cycles: 1563534862 heartbeat IPC: 1.39783 cumulative IPC: 0.990193 (Simulation time: 4 hr 39 min 28 sec) 
Heartbeat CPU 0 instructions: 1870000003 cycles: 1570650972 heartbeat IPC: 1.40526 cumulative IPC: 0.992332 (Simulation time: 4 hr 40 min 46 sec) 
Heartbeat CPU 0 instructions: 1880000000 cycles: 1577766631 heartbeat IPC: 1.40535 cumulative IPC: 0.99445 (Simulation time: 4 hr 42 min 3 sec) 
Heartbeat CPU 0 instructions: 1890000003 cycles: 1584901755 heartbeat IPC: 1.40152 cumulative IPC: 0.996532 (Simulation time: 4 hr 43 min 21 sec) 
Heartbeat CPU 0 instructions: 1900000003 cycles: 1592497019 heartbeat IPC: 1.31661 cumulative IPC: 0.998266 (Simulation time: 4 hr 44 min 41 sec) 
Heartbeat CPU 0 instructions: 1910000004 cycles: 1607884614 heartbeat IPC: 0.649874 cumulative IPC: 0.994485 (Simulation time: 4 hr 46 min 42 sec) 
Heartbeat CPU 0 instructions: 1920000000 cycles: 1623307521 heartbeat IPC: 0.648386 cumulative IPC: 0.99076 (Simulation time: 4 hr 48 min 44 sec) 
Heartbeat CPU 0 instructions: 1930000003 cycles: 1638720899 heartbeat IPC: 0.648787 cumulative IPC: 0.987122 (Simulation time: 4 hr 50 min 46 sec) 
Heartbeat CPU 0 instructions: 1940000002 cycles: 1654192448 heartbeat IPC: 0.646348 cumulative IPC: 0.983521 (Simulation time: 4 hr 52 min 48 sec) 
Heartbeat CPU 0 instructions: 1950000003 cycles: 1677925507 heartbeat IPC: 0.421353 cumulative IPC: 0.974554 (Simulation time: 4 hr 55 min 45 sec) 
Heartbeat CPU 0 instructions: 1960000003 cycles: 1695254800 heartbeat IPC: 0.577058 cumulative IPC: 0.969977 (Simulation time: 4 hr 58 min 11 sec) 
Heartbeat CPU 0 instructions: 1970000001 cycles: 1705905064 heartbeat IPC: 0.938944 cumulative IPC: 0.969759 (Simulation time: 4 hr 59 min 50 sec) 
Heartbeat CPU 0 instructions: 1980000000 cycles: 1713463767 heartbeat IPC: 1.32298 cumulative IPC: 0.971512 (Simulation time: 5 hr 1 min 9 sec) 
Heartbeat CPU 0 instructions: 1990000000 cycles: 1721068229 heartbeat IPC: 1.31502 cumulative IPC: 0.973218 (Simulation time: 5 hr 2 min 28 sec) 
*** Reached end of trace: traces/437.leslie3d-134B.champsimtrace.xz
Heartbeat CPU 0 instructions: 2000000001 cycles: 1728673605 heartbeat IPC: 1.31486 cumulative IPC: 0.974907 (Simulation time: 5 hr 3 min 47 sec) 
Finished CPU 0 instructions: 1500000000 cycles: 1538608618 cumulative IPC: 0.974907 (Simulation time: 5 hr 3 min 47 sec) 

ChampSim completed all CPUs

Region of Interest Statistics

CPU 0 cumulative IPC: 0.974907 instructions: 1500000000 cycles: 1538608618
cpu0_DTLB TOTAL     ACCESS:  335831199  HIT:  335340209  MISS:     490990
cpu0_DTLB LOAD      ACCESS:  306108805  HIT:  305697344  MISS:     411461
cpu0_DTLB RFO       ACCESS:   29722394  HIT:   29642865  MISS:      79529
cpu0_DTLB PREFETCH  ACCESS:          0  HIT:          0  MISS:          0
cpu0_DTLB WRITEBACK ACCESS:          0  HIT:          0  MISS:          0
cpu0_DTLB TRANSLATION ACCESS:          0  HIT:          0  MISS:          0
cpu0_DTLB PREFETCH  REQUESTED:          0  ISSUED:          0  USEFUL:          0  USELESS:          0
cpu0_DTLB AVERAGE MISS LATENCY: 13.7612 cycles
cpu0_ITLB TOTAL     ACCESS:   17020203  HIT:   17020174  MISS:         29
cpu0_ITLB LOAD      ACCESS:   17020203  HIT:   17020174  MISS:         29
cpu0_ITLB RFO       ACCESS:          0  HIT:          0  MISS:          0
cpu0_ITLB PREFETCH  ACCESS:          0  HIT:          0  MISS:          0
cpu0_ITLB WRITEBACK ACCESS:          0  HIT:          0  MISS:          0
cpu0_ITLB TRANSLATION ACCESS:          0  HIT:          0  MISS:          0
cpu0_ITLB PREFETCH  REQUESTED:          0  ISSUED:          0  USEFUL:          0  USELESS:          0
cpu0_ITLB AVERAGE MISS LATENCY: 31.931 cycles
cpu0_L1I TOTAL     ACCESS:   30101433  HIT:   30100188  MISS:       1245
cpu0_L1I LOAD      ACCESS:   30101433  HIT:   30100188  MISS:       1245
cpu0_L1I RFO       ACCESS:          0  HIT:          0  MISS:          0
cpu0_L1I PREFETCH  ACCESS:          0  HIT:          0  MISS:          0
cpu0_L1I WRITEBACK ACCESS:          0  HIT:          0  MISS:          0
cpu0_L1I TRANSLATION ACCESS:          0  HIT:          0  MISS:          0
cpu0_L1I PREFETCH  REQUESTED:          0  ISSUED:          0  USEFUL:          0  USELESS:          0
cpu0_L1I AVERAGE MISS LATENCY: 325.811 cycles
cpu0_STLB TOTAL     ACCESS:     491019  HIT:     324652  MISS:     166367
cpu0_STLB LOAD      ACCESS:     411490  HIT:     291210  MISS:     120280
cpu0_STLB RFO       ACCESS:      79529  HIT:      33442  MISS:      46087
cpu0_STLB PREFETCH  ACCESS:          0  HIT:          0  MISS:          0
cpu0_STLB WRITEBACK ACCESS:          0  HIT:          0  MISS:          0
cpu0_STLB TRANSLATION ACCESS:          0  HIT:          0  MISS:          0
cpu0_STLB PREFETCH  REQUESTED:          0  ISSUED:          0  USEFUL:          0  USELESS:          0
cpu0_STLB AVERAGE MISS LATENCY: 13.997 cycles
cpu0_L1D TOTAL     ACCESS:  394360473  HIT:  379426444  MISS:   14934029
cpu0_L1D LOAD      ACCESS:  357452311  HIT:  346021714  MISS:   11430597
cpu0_L1D RFO       ACCESS:   36750745  HIT:   33266502  MISS:    3484243
cpu0_L1D PREFETCH  ACCESS:          0  HIT:          0  MISS:          0
cpu0_L1D WRITEBACK ACCESS:          0  HIT:          0  MISS:          0
cpu0_L1D TRANSLATION ACCESS:     157417  HIT:     138228  MISS:      19189
cpu0_L1D PREFETCH  REQUESTED:          0  ISSUED:          0  USEFUL:          0  USELESS:          0
cpu0_L1D AVERAGE MISS LATENCY: 244.468 cycles
cpu0_L2C TOTAL     ACCESS:   19556630  HIT:    8045843  MISS:   11510787
cpu0_L2C LOAD      ACCESS:   11431650  HIT:    2580646  MISS:    8851004
cpu0_L2C RFO       ACCESS:    3484223  HIT:     831290  MISS:    2652933
cpu0_L2C PREFETCH  ACCESS:          0  HIT:          0  MISS:          0
cpu0_L2C WRITEBACK ACCESS:    4621568  HIT:    4615433  MISS:       6135
cpu0_L2C TRANSLATION ACCESS:      19189  HIT:      18474  MISS:        715
cpu0_L2C PREFETCH  REQUESTED:          0  ISSUED:          0  USEFUL:          0  USELESS:          0
cpu0_L2C AVERAGE MISS LATENCY: 302.918 cycles
LLC TOTAL     ACCESS:   15020552  HIT:    4498141  MISS:   10522411
LLC LOAD      ACCESS:    8851000  HIT:     837374  MISS:    8013626
LLC RFO       ACCESS:    2652931  HIT:     162377  MISS:    2490554
LLC PREFETCH  ACCESS:          0  HIT:          0  MISS:          0
LLC WRITEBACK ACCESS:    3515906  HIT:    3498002  MISS:      17904
LLC TRANSLATION ACCESS:        715  HIT:        388  MISS:        327
LLC PREFETCH  REQUESTED:          0  ISSUED:          0  USEFUL:          0  USELESS:          0
LLC AVERAGE MISS LATENCY: 308.411 cycles
~~~~~~~~~~Reuse Distance Profiler output~~~~~~~~~~
0	19068192	13334368
1	25639040	20670688
2	34409760	28710112
3	38611536	35616336
4	36014256	34447280
5	32297840	30909024
6	33820272	32505456
7	31324688	30154304
8	24202752	22724624
9	18978480	18125424
10	16692368	15723440
11	12579712	11797456
12	12237280	11229344
13	11514368	10077200
14	9981264	8980304
15	9193200	7950416
16	7337136	6325056
17	6871712	6269712
18	6102288	5403440
19	6347968	5769584
20	5789936	5380320
21	5127952	4628064
22	5700912	5263792
23	5070016	4682832
24	5653920	5181968
25	4618400	4195424
26	4505424	4145776
27	4829744	4378688
28	4729024	4288992
29	5721840	5210368
30	5626896	5140336
31	5669136	5067840
32	5205344	4653472
33	4380544	3924080
34	3878688	3553824
35	2999456	2759120
36	3856896	3561376
37	4672256	4318960
38	3333168	3044880
39	2445312	2255200
40	2498224	2269856
41	2260272	2134896
42	1996224	1897808
43	2020224	1912576
44	1774384	1614720
45	2203280	2065312
46	2254560	2121824
47	2311472	2208464
48	2612944	2528880
49	2480176	2374560
50	1842784	1766336
51	1641968	1486640
52	1468176	1375152
53	1635024	1513344
54	1348064	1205504
55	1568240	1456864
56	1237808	1088992
57	1092048	864240
58	722768	575488
59	695632	479072
60	886656	794880
61	970416	813392
62	667328	596640
63	359584	299120
64	856144	746176
66	925088	791712
68	1024416	862112
70	1011472	916544
72	1228608	1062000
74	1137088	918624
76	904544	705456
78	600384	494128
80	478400	415280
82	466496	445712
84	314240	287376
86	408176	396160
88	330192	288736
90	250864	240896
92	281936	273264
94	149152	140384
96	101168	93936
98	220832	143984
100	201520	192320
102	140672	134336
104	131776	128192
106	77488	74592
108	50544	48000
110	186400	184272
112	83184	81216
114	84496	82160
116	105072	103088
118	48848	46992
120	41888	39824
122	33520	30976
124	21872	19792
126	51664	50000
128	40240	38768
132	28640	27152
136	25600	24144
140	18480	17216
144	19536	18464
148	18864	18528
152	22624	22512
156	54800	54720
160	49072	49072
164	34992	34992
168	42448	42448
172	20960	20960
176	13904	13904
180	5904	5904
184	8192	5648
188	11600	4096
192	15776	8384
196	14432	10752
200	7648	3744
204	10688	6976
208	4304	2928
212	4832	4736
216	3104	3104
220	1856	1856
224	3040	3040
228	2976	2976
232	2048	2048
236	1568	1568
240	2640	2640
244	1648	1648
248	2176	2176
252	2320	2304
256	3952	3952
264	7056	7056
272	5552	5552
280	9616	9616
288	13296	13296
296	16032	16016
304	16320	16288
312	21088	21008
320	31136	31072
328	30768	30720
336	26112	25936
344	24976	22896
352	34800	29824
360	43824	40912
368	44368	43888
376	44096	40736
384	46016	36064
392	44752	36736
400	34768	32032
408	28912	28704
416	34992	34976
424	33952	33680
432	40528	39808
440	47248	46560
448	39408	39376
456	40096	40096
464	39008	39008
472	39088	39088
480	38112	38096
488	42736	42720
496	45936	45936
504	46336	46336
512	107728	107664
528	127184	126944
544	163024	161168
560	148816	144256
576	112880	112784
592	68496	66992
608	57680	54672
624	71728	68496
640	86928	86368
656	77568	77536
672	73632	73632
688	37568	37408
704	24336	23664
720	32672	30672
736	54832	49728
752	55712	54048
768	64672	63856
784	82048	80976
800	106944	105648
816	47248	46704
832	45920	45920
848	43888	43872
864	30896	30896
880	28848	28832
896	29872	29472
912	44320	43408
928	62560	61360
944	40352	39536
960	21712	21248
976	19760	19248
992	27104	26336
1008	23328	22480
1024	31200	28240
1056	53280	50160
1088	159232	158080
1120	21520	21504
1152	18256	16896
1184	14240	14128
1216	183664	183616
1248	231936	231728
1280	259440	255968
1312	34912	33376
1344	50752	48048
1376	29520	28240
1408	24560	21600
1440	24576	22304
1472	23696	23184
1504	18704	18288
1536	21184	20576
1568	20432	18176
1600	25072	23120
1632	22512	18928
1664	11200	10896
1696	10912	9424
1728	9808	8240
1760	20480	20464
1792	15280	15200
1824	28560	27840
1856	29984	27696
1888	18960	15344
1920	19104	17152
1952	17504	16576
1984	15664	14000
2016	14192	11904
2048	25024	18464
2112	11088	6960
2176	19760	12880
2240	13120	12016
2304	17696	14128
2368	24464	21728
2432	17808	12016
2496	15136	14320
2560	17120	13376
2624	21104	19424
2688	34224	26880
2752	25536	24256
2816	15472	13488
2880	20352	17136
2944	18000	15232
3008	20496	15680
3072	27920	23216
3136	31808	16144
3200	35920	16256
3264	40576	17120
3328	75456	57232
3392	39600	21360
3456	43936	23568
3520	38880	18896
3584	35792	24752
3648	35200	32464
3712	29792	24512
3776	38928	33712
3840	15952	14416
3904	19728	17280
3968	28544	28144
4032	39312	33200
4096	82560	80320
4224	86704	83344
4352	96704	91792
4480	89088	82416
4608	95936	87888
4736	84976	79376
4864	91568	79344
4992	146832	111120
5120	153168	122848
5248	123360	103312
5376	115888	101360
5504	99840	90848
5632	96880	84688
5760	92272	84720
5888	69280	61152
6016	63344	57504
6144	53456	51904
6272	42336	35008
6400	59360	50448
6528	84080	62848
6656	57968	50944
6784	61728	48016
6912	62240	47136
7040	38816	25520
7168	30592	20016
7296	26064	14960
7424	25440	15424
7552	49136	38864
7680	67568	57824
7808	80608	69952
7936	76320	65136
8064	67104	57328
8192	135792	108064
8448	160464	139856
8704	162192	145648
8960	119616	109296
9216	60176	55216
9472	31696	30464
9728	49200	39584
9984	94336	57984
10240	145824	73008
10496	144464	77856
10752	160464	98192
11008	171520	108656
11264	147840	93840
11520	101408	68784
11776	99600	71104
12032	90672	64496
12288	87936	72672
12544	100848	93520
12800	89424	84928
13056	69280	66144
13312	80624	68512
13568	112624	81872
13824	146880	102128
14080	173952	111200
14336	166720	104720
14592	159616	93136
14848	147280	76544
15104	135344	72384
15360	110832	60752
15616	78576	46144
15872	71136	40496
16128	113760	38640
16384	174736	75472
16896	133136	84240
17408	112544	70480
17920	142656	77408
18432	140848	64832
18944	304384	168144
19456	293520	159056
19968	255248	170640
20480	66736	32336
20992	33008	13568
21504	18784	8640
22016	21200	10880
22528	22224	8560
23040	32848	12912
23552	230704	162752
24064	41008	9232
24576	58704	32304
25088	187904	131184
25600	12512	7216
26112	10112	6240
26624	8256	3312
27136	6256	2048
27648	5648	608
28160	7312	2672
28672	6192	1648
29184	7840	4352
29696	109616	81008
30208	89088	66512
30720	16640	13904
31232	8272	5472
31744	4560	4560
32256	4800	4800
32768	10112	10112
33792	2304	2288
34816	400	384
35840	2192	400
36864	288	288
37888	2528	1328
38912	5088	2528
39936	9776	6144
40960	11136	11136
41984	10608	10576
43008	3776	3776
44032	32	32
45056	1728	16
46080	256	240
47104	54944	52496
48128	5280	2704
49152	5120	2256
50176	5616	1968
51200	4128	2480
52224	688	672
53248	528	256
54272	2816	0
55296	3136	0
56320	2384	768
57344	7712	2816
58368	7648	2160
59392	19776	14960
60416	38880	34960
61440	15712	7904
62464	6176	576
63488	6832	2048
64512	2512	1056
65536	15904	5392
67584	13488	5456
69632	8384	3168
71680	896	480
73728	752	736
75776	6112	2352
77824	8320	3248
79872	3312	3168
81920	4128	2352
83968	3920	2032
86016	10080	5424
88064	9680	5152
90112	6176	2896
92160	4416	896
94208	3088	688
96256	10752	3376
98304	9040	3856
100352	11840	2784
102400	2112	640
104448	8016	3664
106496	18304	7296
108544	9680	4192
110592	1248	1024
112640	1696	1664
114688	5440	2160
116736	9104	3648
118784	4288	2528
120832	928	928
122880	2784	1984
124928	10864	4896
126976	8848	4192
129024	4336	2464
131072	7568	3648
135168	14560	7424
139264	6624	2944
143360	14368	7648
147456	11616	5120
151552	4272	2080
155648	18080	9616
159744	12160	11504
163840	299664	286848
167936	256064	254096
172032	8912	3616
176128	10112	4896
180224	10896	6336
184320	18192	10304
188416	7344	2800
192512	10064	4288
196608	8928	4640
200704	10784	5632
204800	16848	8560
208896	4448	3312
212992	14720	5792
217088	5520	3872
221184	14848	6960
225280	12400	6176
229376	7232	3552
233472	12928	7152
237568	9872	5232
241664	15088	7040
245760	8240	3600
249856	9184	3712
253952	30592	12544
258048	33808	15216
262144	58784	24144
270336	21648	9776
278528	28880	15776
286720	18784	8336
294912	24768	13216
303104	21952	13728
311296	13856	7280
319488	15664	8256
327680	49376	17856
335872	70544	66928
344064	506624	502608
352256	132112	127472
360448	8672	3056
368640	10720	4320
376832	9904	5248
385024	3872	2928
393216	8016	3552
401408	5824	4320
409600	4064	2144
417792	4176	1712
425984	3488	2800
434176	1776	880
442368	2832	1888
450560	29824	28592
458752	226352	225808
466944	76768	75680
475136	1936	864
483328	2096	1440
491520	1920	992
499712	2336	1520
507904	2336	1056
516096	1760	1296
524288	4336	2208
540672	4464	2768
557056	4640	2512
573440	4144	2400
589824	4400	2624
606208	4432	2640
622592	4656	2480
638976	4032	2048
655360	4000	2032
671744	4400	2496
688128	4240	2480
704512	4640	2576
720896	4384	2688
737280	4656	2560
753664	4272	2416
770048	4656	2608
786432	4144	2592
802816	3952	2304
819200	4176	2432
835584	4432	2896
851968	5168	2816
868352	4752	2768
884736	4752	2784
901120	4720	2720
917504	4688	2768
933888	4496	2864
950272	5392	3472
966656	4864	2656
983040	4432	2592
999424	4864	2560
1015808	4192	2720
1032192	4048	2400
1048576	8480	5152
1081344	9712	5712
1114112	8832	5264
1146880	9456	5136
1179648	8896	5152
1212416	9888	5408
1245184	9248	5760
1277952	9184	5472
1310720	9312	5376
1343488	8784	5104
1376256	9600	5344
1409024	18176	14592
1441792	46512	42432
1474560	33616	30528
1507328	15104	11408
1540096	15344	11824
1572864	16176	12224
1605632	14800	11136
1638400	16176	12176
1671168	15088	11232
1703936	112960	109312
1736704	39616	36112
1769472	19936	16576
1802240	10128	6240
1835008	78544	75552
1867776	9504	5792
1900544	10144	6368
1933312	10256	6480
1966080	10928	7792
1998848	10032	5872
2031616	10272	6592
2064384	11136	7504
2097152	20304	12560
2162688	19328	12848
2228224	20480	12512
2293760	19888	12448
2359296	17760	11904
2424832	15520	10416
2490368	11648	7776
2555904	9824	7520
2621440	8288	6704
2686976	600576	599728
2752512	8032	7184
2818048	298688	297664
2883584	7872	6800
2949120	6256	5360
3014656	6800	5744
3080192	7232	6128
3145728	6624	5456
3211264	7216	6160
3276800	6672	5744
3342336	15824	14736
3407872	42016	40688
3473408	29744	28496
3538944	147712	146464
3604480	160768	159968
3670016	9280	8288
3735552	6608	6032
3801088	6544	5760
3866624	6464	5696
3932160	5936	5184
3997696	5760	4896
4063232	5488	4512
4128768	5456	4944
4194304	76592	74992
4325376	13824	12288
4456448	12432	10800
4587520	11792	10304
4718592	13744	12400
4849664	12768	11456
4980736	13808	12736
5111808	12112	11152
5242880	13376	12448
5373952	14768	13440
5505024	38848	37472
5636096	22544	20944
5767168	14736	13408
5898240	13168	11776
6029312	17584	15872
6160384	14240	12752
6291456	15056	13520
6422528	15968	14416
6553600	14592	13104
6684672	16640	14768
6815744	14960	13408
6946816	14336	12928
7077888	18704	16992
7208960	24000	22032
7340032	23904	22272
7471104	23968	22688
7602176	22848	21488
7733248	24288	22864
7864320	23264	21472
7995392	26032	24160
8126464	33376	31568
8257536	32736	30560
8388608	70128	66096
8650752	79552	75440
8912896	80128	76016
9175040	80880	76928
9437184	81088	76976
9699328	81232	77216
9961472	69664	65280
10223616	59712	56112
10485760	63936	59136
10747904	64464	59520
11010048	68656	63424
11272192	62624	56256
11534336	67648	62144
11796480	75584	69808
12058624	75008	68880
12320768	59248	53920
12582912	48512	44688
12845056	104304	100256
13107200	51952	45920
13369344	52304	47328
13631488	53216	47248
13893632	56016	50992
14155776	62128	55840
14417920	78304	72096
14680064	67920	60768
14942208	68688	61952
15204352	63392	57488
15466496	43920	38032
15728640	34704	26352
15990784	35088	26528
16252928	35536	25296
16515072	34320	24640
16777216	98208	80368
17301504	71200	49392
17825792	65616	45152
18350080	62288	40752
18874368	89152	65840
19398656	66688	43968
19922944	58768	37824
20447232	58656	39792
20971520	56288	36048
21495808	53584	31408
22020096	53536	33920
22544384	50336	33376
23068672	51168	33888
23592960	53760	33776
24117248	53376	33584
24641536	47824	30720
25165824	46704	30144
25690112	45264	28192
26214400	46928	28528
26738688	47680	28992
27262976	48400	28352
27787264	46656	27888
28311552	48752	29312
28835840	49168	28208
29360128	47632	28032
29884416	49680	30032
30408704	46384	27408
30932992	50080	29600
31457280	47696	27504
31981568	54224	30992
32505856	51568	27168
33030144	50512	28576
33554432	109632	57360
34603008	105392	55808
35651584	99872	58256
36700160	104832	56784
37748736	97472	56448
38797312	94640	51328
39845888	88544	47008
40894464	84944	43728
41943040	82016	38576
42991616	80320	37712
44040192	78784	37952
45088768	74256	34864
46137344	73616	36784
47185920	69568	34064
48234496	65120	31552
49283072	67552	32400
50331648	64992	31648
51380224	58944	27408
52428800	59360	25840
53477376	53984	23072
54525952	56112	22240
55574528	50560	20192
56623104	43136	17936
57671680	47376	19792
58720256	50160	20768
59768832	53424	24592
60817408	47872	27008
61865984	54896	29488
62914560	59248	31008
63963136	64560	34672
65011712	61440	36976
66060288	60384	39360
67108864	514144	412112
69206016	388096	350656
71303168	426272	350336
73400320	332400	300288
75497472	119024	88640
77594624	111744	79008
79691776	109408	71872
81788928	82992	67584
83886080	127536	92016
85983232	116688	78912
88080384	33760	20064
90177536	149744	105120
92274688	94624	81168
94371840	106528	95024
96468992	58592	47344
98566144	17232	6832
100663296	16272	5632
102760448	9552	3888
104857600	8128	2384
106954752	6672	1728
109051904	2672	1520
111149056	2896	1888
113246208	2256	1504
115343360	1744	1360
117440512	2944	1616
119537664	1888	1568
121634816	1472	1424
123731968	1392	1296
125829120	4448	1264
127926272	5392	1072
130023424	1024	896
132120576	1296	656
134217728	7104	1840
138412032	11840	2912
142606336	11840	2368
146800640	18288	1168
150994944	2160	1584
155189248	29680	18144
159383552	9008	928
163577856	1280	1280
167772160	224	224
171966464	784	784
176160768	2288	2288
180355072	2112	2112
184549376	2384	2384
188743680	2352	2352
192937984	2480	2480
197132288	3776	3744
201326592	4512	4512
205520896	4432	4432
209715200	4368	4352
213909504	3664	3664
218103808	7520	2848
222298112	3888	2400
226492416	10336	4464
230686720	255040	220848
234881024	3024	2816
239075328	4352	1104
243269632	800	32
247463936	5872	192
251658240	15408	1408
255852544	230688	213360
260046848	1216	1216
264241152	1104	1104
268435456	1344	1344
276824064	0	0
285212672	0	0
293601280	2352	176
301989888	16576	2176
310378496	12128	528
318767104	0	0
327155712	0	0
335544320	0	0
343932928	0	0
352321536	0	0
360710144	0	0
369098752	5984	512
377487360	4032	400
385875968	0	0
394264576	0	0
402653184	0	0
411041792	0	0
419430400	0	0
427819008	0	0
436207616	0	0
444596224	0	0
452984832	0	0
461373440	96	0
469762048	16	0
478150656	112	16
486539264	0	0
494927872	0	0
503316480	0	0
511705088	0	0
520093696	0	0
528482304	0	0
536870912	0	0
553648128	0	0
570425344	0	0
587202560	0	0
603979776	0	0
620756992	0	0
637534208	0	0
654311424	0	0
671088640	0	0
687865856	0	0
704643072	0	0
721420288	0	0
738197504	0	0
754974720	0	0
771751936	0	0
788529152	0	0
805306368	0	0
822083584	0	0
838860800	0	0
855638016	0	0
872415232	0	0
889192448	0	0
905969664	0	0
922746880	0	0
939524096	0	0
956301312	0	0
973078528	0	0
989855744	0	0
1006632960	0	0
1023410176	0	0
1040187392	0	0
1056964608	0	0
1073741824	0	0
1107296256	0	0
1140850688	0	0
1174405120	0	0
1207959552	0	0
1241513984	0	0
1275068416	0	0
1308622848	0	0
1342177280	0	0
1375731712	0	0
1409286144	0	0
1442840576	0	0
1476395008	0	0
1509949440	0	0
1543503872	0	0
1577058304	0	0
1610612736	0	0
1644167168	0	0
1677721600	0	0
1711276032	0	0
1744830464	0	0
1778384896	0	0
1811939328	0	0
1845493760	0	0
1879048192	0	0
1912602624	0	0
1946157056	0	0
1979711488	0	0
2013265920	0	0
2046820352	0	0
2080374784	0	0
2113929216	0	0
2147483648	0	0
2214592512	0	0
2281701376	0	0
2348810240	0	0
2415919104	0	0
2483027968	0	0
2550136832	0	0
2617245696	0	0
2684354560	0	0
2751463424	0	0
2818572288	0	0
2885681152	0	0
2952790016	0	0
3019898880	0	0
3087007744	0	0
3154116608	0	0
3221225472	0	0
3288334336	0	0
3355443200	0	0
3422552064	0	0
3489660928	0	0
3556769792	0	0
3623878656	0	0
3690987520	0	0
3758096384	0	0
3825205248	0	0
3892314112	0	0
3959422976	0	0
4026531840	0	0
4093640704	0	0
4160749568	0	0
4227858432	0	0
~~~~~~~~~~Reuse Distance Profiler output end~~~~~~~~~~

DRAM Statistics
 CHANNEL 0
 RQ ROW_BUFFER_HIT:     381335  ROW_BUFFER_MISS:   10120438
 DBUS AVG_CONGESTED_CYCLE:    3.95032
 WQ ROW_BUFFER_HIT:     491859  ROW_BUFFER_MISS:    2903415  FULL:          0


CPU 0 Branch Prediction Accuracy: 98.2835% MPKI: 0.438048 Average ROB Occupancy at Mispredict: 313.228
Branch type MPKI
BRANCH_DIRECT_JUMP: 1.06667e-05
BRANCH_INDIRECT: 1.33333e-06
BRANCH_CONDITIONAL: 0.437987
BRANCH_DIRECT_CALL: 2.46667e-05
BRANCH_INDIRECT_CALL: 0
BRANCH_RETURN: 2.4e-05

