
*** ChampSim Multicore Out-of-Order Simulator ***

Warmup Instructions: 500000000
Simulation Instructions: 1500000000
Number of CPUs: 1
Off-chip DRAM Size: 4 GiB Channels: 1 Width: 64-bit Data Rate: 3200 MT/s

VirtualMemory physical capacity: 8588881920 num_ppages: 2096895
VirtualMemory page size: 4096 log2_page_size: 12

CPU 0 runs traces/437.leslie3d-149B.champsimtrace.xz
CPU 0 Bimodal branch predictor
Basic BTB sets: 1024 ways: 8 indirect buffer size: 4096 RAS size: 64
Initializing LRU.
Initializing LRU.
Initializing LRU.
Initializing LRU.
Initializing rdLRU.
Initializing LRU.
Initializing LRU.
Heartbeat CPU 0 instructions: 10000000 cycles: 3827576 heartbeat IPC: 2.61262 cumulative IPC: 2.61262 (Simulation time: 0 hr 0 min 57 sec) 
Heartbeat CPU 0 instructions: 20000003 cycles: 7650516 heartbeat IPC: 2.61579 cumulative IPC: 2.6142 (Simulation time: 0 hr 1 min 50 sec) 
Heartbeat CPU 0 instructions: 30000000 cycles: 11475911 heartbeat IPC: 2.61411 cumulative IPC: 2.61417 (Simulation time: 0 hr 2 min 45 sec) 
Heartbeat CPU 0 instructions: 40000003 cycles: 15303653 heartbeat IPC: 2.61251 cumulative IPC: 2.61376 (Simulation time: 0 hr 3 min 39 sec) 
Heartbeat CPU 0 instructions: 50000003 cycles: 19131864 heartbeat IPC: 2.61219 cumulative IPC: 2.61344 (Simulation time: 0 hr 4 min 33 sec) 
Heartbeat CPU 0 instructions: 60000002 cycles: 22786079 heartbeat IPC: 2.73657 cumulative IPC: 2.63319 (Simulation time: 0 hr 5 min 26 sec) 
Heartbeat CPU 0 instructions: 70000003 cycles: 26264414 heartbeat IPC: 2.87494 cumulative IPC: 2.6652 (Simulation time: 0 hr 6 min 17 sec) 
Heartbeat CPU 0 instructions: 80000000 cycles: 29742630 heartbeat IPC: 2.87504 cumulative IPC: 2.68974 (Simulation time: 0 hr 7 min 8 sec) 
Heartbeat CPU 0 instructions: 90000001 cycles: 33219873 heartbeat IPC: 2.87584 cumulative IPC: 2.70922 (Simulation time: 0 hr 7 min 59 sec) 
Heartbeat CPU 0 instructions: 100000000 cycles: 36718694 heartbeat IPC: 2.85811 cumulative IPC: 2.72341 (Simulation time: 0 hr 8 min 51 sec) 
Heartbeat CPU 0 instructions: 110000002 cycles: 40571218 heartbeat IPC: 2.5957 cumulative IPC: 2.71128 (Simulation time: 0 hr 9 min 49 sec) 
Heartbeat CPU 0 instructions: 120000004 cycles: 44402058 heartbeat IPC: 2.61039 cumulative IPC: 2.70258 (Simulation time: 0 hr 10 min 44 sec) 
Heartbeat CPU 0 instructions: 130000001 cycles: 47985046 heartbeat IPC: 2.79097 cumulative IPC: 2.70918 (Simulation time: 0 hr 11 min 31 sec) 
Heartbeat CPU 0 instructions: 140000000 cycles: 51568034 heartbeat IPC: 2.79097 cumulative IPC: 2.71486 (Simulation time: 0 hr 12 min 18 sec) 
Heartbeat CPU 0 instructions: 150000002 cycles: 55151023 heartbeat IPC: 2.79097 cumulative IPC: 2.7198 (Simulation time: 0 hr 13 min 4 sec) 
Heartbeat CPU 0 instructions: 160000004 cycles: 58734012 heartbeat IPC: 2.79097 cumulative IPC: 2.72415 (Simulation time: 0 hr 13 min 49 sec) 
Heartbeat CPU 0 instructions: 170000004 cycles: 62317001 heartbeat IPC: 2.79097 cumulative IPC: 2.72799 (Simulation time: 0 hr 14 min 34 sec) 
Heartbeat CPU 0 instructions: 180000001 cycles: 65899994 heartbeat IPC: 2.79096 cumulative IPC: 2.73141 (Simulation time: 0 hr 15 min 20 sec) 
Heartbeat CPU 0 instructions: 190000000 cycles: 69654568 heartbeat IPC: 2.66342 cumulative IPC: 2.72775 (Simulation time: 0 hr 16 min 10 sec) 
Heartbeat CPU 0 instructions: 200000003 cycles: 73650357 heartbeat IPC: 2.50264 cumulative IPC: 2.71553 (Simulation time: 0 hr 17 min 5 sec) 
Heartbeat CPU 0 instructions: 210000000 cycles: 77585871 heartbeat IPC: 2.54096 cumulative IPC: 2.70668 (Simulation time: 0 hr 17 min 59 sec) 
Heartbeat CPU 0 instructions: 220000003 cycles: 81926091 heartbeat IPC: 2.30403 cumulative IPC: 2.68535 (Simulation time: 0 hr 19 min 12 sec) 
Heartbeat CPU 0 instructions: 230000001 cycles: 86400433 heartbeat IPC: 2.23497 cumulative IPC: 2.66202 (Simulation time: 0 hr 20 min 47 sec) 
Heartbeat CPU 0 instructions: 240000000 cycles: 90874780 heartbeat IPC: 2.23496 cumulative IPC: 2.641 (Simulation time: 0 hr 22 min 9 sec) 
Heartbeat CPU 0 instructions: 250000004 cycles: 95349127 heartbeat IPC: 2.23496 cumulative IPC: 2.62194 (Simulation time: 0 hr 23 min 20 sec) 
Heartbeat CPU 0 instructions: 260000004 cycles: 99171379 heartbeat IPC: 2.61626 cumulative IPC: 2.62172 (Simulation time: 0 hr 24 min 36 sec) 
Heartbeat CPU 0 instructions: 270000001 cycles: 102959247 heartbeat IPC: 2.64001 cumulative IPC: 2.6224 (Simulation time: 0 hr 25 min 39 sec) 
Heartbeat CPU 0 instructions: 280000001 cycles: 106748841 heartbeat IPC: 2.63881 cumulative IPC: 2.62298 (Simulation time: 0 hr 26 min 45 sec) 
Heartbeat CPU 0 instructions: 290000001 cycles: 110536672 heartbeat IPC: 2.64003 cumulative IPC: 2.62356 (Simulation time: 0 hr 27 min 51 sec) 
Heartbeat CPU 0 instructions: 300000004 cycles: 114324557 heartbeat IPC: 2.64 cumulative IPC: 2.62411 (Simulation time: 0 hr 29 min 31 sec) 
Heartbeat CPU 0 instructions: 310000004 cycles: 118114170 heartbeat IPC: 2.63879 cumulative IPC: 2.62458 (Simulation time: 0 hr 30 min 58 sec) 
Heartbeat CPU 0 instructions: 320000002 cycles: 121901968 heartbeat IPC: 2.64006 cumulative IPC: 2.62506 (Simulation time: 0 hr 32 min 3 sec) 
Heartbeat CPU 0 instructions: 330000001 cycles: 125689863 heartbeat IPC: 2.63999 cumulative IPC: 2.62551 (Simulation time: 0 hr 32 min 58 sec) 
Heartbeat CPU 0 instructions: 340000004 cycles: 129479485 heartbeat IPC: 2.63879 cumulative IPC: 2.6259 (Simulation time: 0 hr 33 min 53 sec) 
Heartbeat CPU 0 instructions: 350000001 cycles: 133267272 heartbeat IPC: 2.64006 cumulative IPC: 2.6263 (Simulation time: 0 hr 34 min 47 sec) 
Heartbeat CPU 0 instructions: 360000001 cycles: 137055172 heartbeat IPC: 2.63999 cumulative IPC: 2.62668 (Simulation time: 0 hr 35 min 41 sec) 
Heartbeat CPU 0 instructions: 370000000 cycles: 140844801 heartbeat IPC: 2.63878 cumulative IPC: 2.62701 (Simulation time: 0 hr 36 min 35 sec) 
Heartbeat CPU 0 instructions: 380000001 cycles: 144632576 heartbeat IPC: 2.64007 cumulative IPC: 2.62735 (Simulation time: 0 hr 37 min 29 sec) 
Heartbeat CPU 0 instructions: 390000003 cycles: 148420485 heartbeat IPC: 2.63998 cumulative IPC: 2.62767 (Simulation time: 0 hr 38 min 23 sec) 
Heartbeat CPU 0 instructions: 400000004 cycles: 152163560 heartbeat IPC: 2.6716 cumulative IPC: 2.62875 (Simulation time: 0 hr 39 min 21 sec) 
Heartbeat CPU 0 instructions: 410000001 cycles: 156079677 heartbeat IPC: 2.55355 cumulative IPC: 2.62686 (Simulation time: 0 hr 40 min 14 sec) 
Heartbeat CPU 0 instructions: 420000002 cycles: 159996464 heartbeat IPC: 2.55311 cumulative IPC: 2.62506 (Simulation time: 0 hr 41 min 6 sec) 
Heartbeat CPU 0 instructions: 430000003 cycles: 163912582 heartbeat IPC: 2.55355 cumulative IPC: 2.62335 (Simulation time: 0 hr 41 min 58 sec) 
Heartbeat CPU 0 instructions: 440000001 cycles: 167829369 heartbeat IPC: 2.55311 cumulative IPC: 2.62171 (Simulation time: 0 hr 42 min 49 sec) 
Heartbeat CPU 0 instructions: 450000003 cycles: 171745494 heartbeat IPC: 2.55355 cumulative IPC: 2.62016 (Simulation time: 0 hr 43 min 41 sec) 
Heartbeat CPU 0 instructions: 460000000 cycles: 175666262 heartbeat IPC: 2.55052 cumulative IPC: 2.6186 (Simulation time: 0 hr 44 min 34 sec) 
Heartbeat CPU 0 instructions: 470000004 cycles: 179704094 heartbeat IPC: 2.47658 cumulative IPC: 2.61541 (Simulation time: 0 hr 45 min 29 sec) 
Heartbeat CPU 0 instructions: 480000001 cycles: 183672293 heartbeat IPC: 2.52003 cumulative IPC: 2.61335 (Simulation time: 0 hr 46 min 23 sec) 
Heartbeat CPU 0 instructions: 490000003 cycles: 187950735 heartbeat IPC: 2.3373 cumulative IPC: 2.60707 (Simulation time: 0 hr 47 min 29 sec) 
Heartbeat CPU 0 instructions: 500000000 cycles: 192554330 heartbeat IPC: 2.17221 cumulative IPC: 2.59667 (Simulation time: 0 hr 48 min 50 sec) 

Warmup complete CPU 0 instructions: 500000003 cycles: 192554331 (Simulation time: 0 hr 48 min 50 sec) 

Heartbeat CPU 0 instructions: 510000003 cycles: 208832083 heartbeat IPC: 0.614336 cumulative IPC: 0.614335 (Simulation time: 0 hr 51 min 14 sec) 
Heartbeat CPU 0 instructions: 520000004 cycles: 225222378 heartbeat IPC: 0.610117 cumulative IPC: 0.612219 (Simulation time: 0 hr 53 min 41 sec) 
Heartbeat CPU 0 instructions: 530000003 cycles: 237016679 heartbeat IPC: 0.847867 cumulative IPC: 0.674728 (Simulation time: 0 hr 55 min 48 sec) 
Heartbeat CPU 0 instructions: 540000000 cycles: 246275742 heartbeat IPC: 1.08002 cumulative IPC: 0.744582 (Simulation time: 0 hr 57 min 21 sec) 
Heartbeat CPU 0 instructions: 550000001 cycles: 255517840 heartbeat IPC: 1.08201 cumulative IPC: 0.794111 (Simulation time: 0 hr 59 min 20 sec) 
Heartbeat CPU 0 instructions: 560000001 cycles: 264754403 heartbeat IPC: 1.08265 cumulative IPC: 0.831024 (Simulation time: 1 hr 1 min 55 sec) 
Heartbeat CPU 0 instructions: 570000001 cycles: 273997591 heartbeat IPC: 1.08188 cumulative IPC: 0.859494 (Simulation time: 1 hr 4 min 31 sec) 
Heartbeat CPU 0 instructions: 580000003 cycles: 283228741 heartbeat IPC: 1.08329 cumulative IPC: 0.882278 (Simulation time: 1 hr 6 min 33 sec) 
Heartbeat CPU 0 instructions: 590000003 cycles: 292503438 heartbeat IPC: 1.0782 cumulative IPC: 0.900458 (Simulation time: 1 hr 8 min 23 sec) 
Heartbeat CPU 0 instructions: 600000001 cycles: 301728689 heartbeat IPC: 1.08398 cumulative IPC: 0.915966 (Simulation time: 1 hr 10 min 0 sec) 
Heartbeat CPU 0 instructions: 610000003 cycles: 310944595 heartbeat IPC: 1.08508 cumulative IPC: 0.92913 (Simulation time: 1 hr 11 min 49 sec) 
Heartbeat CPU 0 instructions: 620000001 cycles: 320228521 heartbeat IPC: 1.07713 cumulative IPC: 0.939892 (Simulation time: 1 hr 13 min 34 sec) 
Heartbeat CPU 0 instructions: 630000003 cycles: 329473800 heartbeat IPC: 1.08163 cumulative IPC: 0.949463 (Simulation time: 1 hr 15 min 14 sec) 
Heartbeat CPU 0 instructions: 640000000 cycles: 338730146 heartbeat IPC: 1.08034 cumulative IPC: 0.957751 (Simulation time: 1 hr 16 min 57 sec) 
Heartbeat CPU 0 instructions: 650000001 cycles: 347975764 heartbeat IPC: 1.08159 cumulative IPC: 0.965118 (Simulation time: 1 hr 18 min 53 sec) 
Heartbeat CPU 0 instructions: 660000004 cycles: 357279988 heartbeat IPC: 1.07478 cumulative IPC: 0.971312 (Simulation time: 1 hr 20 min 53 sec) 
Heartbeat CPU 0 instructions: 670000000 cycles: 366643920 heartbeat IPC: 1.06793 cumulative IPC: 0.976509 (Simulation time: 1 hr 22 min 24 sec) 
Heartbeat CPU 0 instructions: 680000002 cycles: 375133454 heartbeat IPC: 1.17792 cumulative IPC: 0.985874 (Simulation time: 1 hr 23 min 47 sec) 
Heartbeat CPU 0 instructions: 690000000 cycles: 383767042 heartbeat IPC: 1.15827 cumulative IPC: 0.993658 (Simulation time: 1 hr 25 min 11 sec) 
Heartbeat CPU 0 instructions: 700000000 cycles: 392361943 heartbeat IPC: 1.16348 cumulative IPC: 1.00096 (Simulation time: 1 hr 26 min 39 sec) 
Heartbeat CPU 0 instructions: 710000004 cycles: 400934627 heartbeat IPC: 1.1665 cumulative IPC: 1.00777 (Simulation time: 1 hr 28 min 4 sec) 
Heartbeat CPU 0 instructions: 720000002 cycles: 409580233 heartbeat IPC: 1.15666 cumulative IPC: 1.0137 (Simulation time: 1 hr 29 min 28 sec) 
Heartbeat CPU 0 instructions: 730000000 cycles: 421376737 heartbeat IPC: 0.847709 cumulative IPC: 1.00515 (Simulation time: 1 hr 31 min 17 sec) 
Heartbeat CPU 0 instructions: 740000001 cycles: 433961381 heartbeat IPC: 0.794619 cumulative IPC: 0.994171 (Simulation time: 1 hr 33 min 8 sec) 
Heartbeat CPU 0 instructions: 750000003 cycles: 449676492 heartbeat IPC: 0.63633 cumulative IPC: 0.9723 (Simulation time: 1 hr 35 min 23 sec) 
Heartbeat CPU 0 instructions: 760000002 cycles: 466006252 heartbeat IPC: 0.612379 cumulative IPC: 0.950807 (Simulation time: 1 hr 37 min 46 sec) 
Heartbeat CPU 0 instructions: 770000003 cycles: 482330487 heartbeat IPC: 0.612586 cumulative IPC: 0.931754 (Simulation time: 1 hr 40 min 24 sec) 
Heartbeat CPU 0 instructions: 780000000 cycles: 494892817 heartbeat IPC: 0.79603 cumulative IPC: 0.926114 (Simulation time: 1 hr 42 min 26 sec) 
Heartbeat CPU 0 instructions: 790000003 cycles: 501972048 heartbeat IPC: 1.41258 cumulative IPC: 0.937244 (Simulation time: 1 hr 44 min 41 sec) 
Heartbeat CPU 0 instructions: 800000001 cycles: 509063564 heartbeat IPC: 1.41014 cumulative IPC: 0.94784 (Simulation time: 1 hr 47 min 6 sec) 
Heartbeat CPU 0 instructions: 810000002 cycles: 516182644 heartbeat IPC: 1.40468 cumulative IPC: 0.957889 (Simulation time: 1 hr 48 min 56 sec) 
Heartbeat CPU 0 instructions: 820000003 cycles: 523333090 heartbeat IPC: 1.39851 cumulative IPC: 0.967414 (Simulation time: 1 hr 51 min 4 sec) 
Heartbeat CPU 0 instructions: 830000002 cycles: 530453679 heartbeat IPC: 1.40438 cumulative IPC: 0.976622 (Simulation time: 1 hr 53 min 20 sec) 
Heartbeat CPU 0 instructions: 840000004 cycles: 537581817 heartbeat IPC: 1.40289 cumulative IPC: 0.985429 (Simulation time: 1 hr 55 min 14 sec) 
Heartbeat CPU 0 instructions: 850000004 cycles: 544691052 heartbeat IPC: 1.40662 cumulative IPC: 0.993932 (Simulation time: 1 hr 56 min 40 sec) 
Heartbeat CPU 0 instructions: 860000004 cycles: 551789670 heartbeat IPC: 1.40872 cumulative IPC: 1.00213 (Simulation time: 1 hr 57 min 59 sec) 
Heartbeat CPU 0 instructions: 870000000 cycles: 558896184 heartbeat IPC: 1.40716 cumulative IPC: 1.00999 (Simulation time: 1 hr 59 min 27 sec) 
Heartbeat CPU 0 instructions: 880000002 cycles: 566019111 heartbeat IPC: 1.40392 cumulative IPC: 1.0175 (Simulation time: 2 hr 1 min 54 sec) 
Heartbeat CPU 0 instructions: 890000001 cycles: 573135943 heartbeat IPC: 1.40512 cumulative IPC: 1.02475 (Simulation time: 2 hr 3 min 44 sec) 
Heartbeat CPU 0 instructions: 900000001 cycles: 580262697 heartbeat IPC: 1.40316 cumulative IPC: 1.0317 (Simulation time: 2 hr 5 min 4 sec) 
Heartbeat CPU 0 instructions: 910000002 cycles: 587363363 heartbeat IPC: 1.40832 cumulative IPC: 1.03848 (Simulation time: 2 hr 6 min 24 sec) 
Heartbeat CPU 0 instructions: 920000000 cycles: 594504406 heartbeat IPC: 1.40036 cumulative IPC: 1.04491 (Simulation time: 2 hr 7 min 43 sec) 
Heartbeat CPU 0 instructions: 930000001 cycles: 602026823 heartbeat IPC: 1.32936 cumulative IPC: 1.05013 (Simulation time: 2 hr 9 min 26 sec) 
Heartbeat CPU 0 instructions: 940000004 cycles: 617390286 heartbeat IPC: 0.650895 cumulative IPC: 1.03569 (Simulation time: 2 hr 11 min 28 sec) 
Heartbeat CPU 0 instructions: 950000000 cycles: 632855588 heartbeat IPC: 0.646609 cumulative IPC: 1.02203 (Simulation time: 2 hr 13 min 30 sec) 
Heartbeat CPU 0 instructions: 960000001 cycles: 648288082 heartbeat IPC: 0.647983 cumulative IPC: 1.00936 (Simulation time: 2 hr 15 min 33 sec) 
Heartbeat CPU 0 instructions: 970000004 cycles: 663764196 heartbeat IPC: 0.646157 cumulative IPC: 0.997432 (Simulation time: 2 hr 17 min 35 sec) 
Heartbeat CPU 0 instructions: 980000003 cycles: 687434990 heartbeat IPC: 0.422461 cumulative IPC: 0.969931 (Simulation time: 2 hr 21 min 56 sec) 
Heartbeat CPU 0 instructions: 990000003 cycles: 704724550 heartbeat IPC: 0.578384 cumulative IPC: 0.956713 (Simulation time: 2 hr 24 min 23 sec) 
Heartbeat CPU 0 instructions: 1000000000 cycles: 715512055 heartbeat IPC: 0.926998 cumulative IPC: 0.9561 (Simulation time: 2 hr 26 min 3 sec) 
Heartbeat CPU 0 instructions: 1010000000 cycles: 723073073 heartbeat IPC: 1.32257 cumulative IPC: 0.961323 (Simulation time: 2 hr 27 min 22 sec) 
Heartbeat CPU 0 instructions: 1020000000 cycles: 730690307 heartbeat IPC: 1.31281 cumulative IPC: 0.966299 (Simulation time: 2 hr 28 min 42 sec) 
Heartbeat CPU 0 instructions: 1030000000 cycles: 738309951 heartbeat IPC: 1.3124 cumulative IPC: 0.971131 (Simulation time: 2 hr 30 min 1 sec) 
Heartbeat CPU 0 instructions: 1040000000 cycles: 745904783 heartbeat IPC: 1.31668 cumulative IPC: 0.975873 (Simulation time: 2 hr 31 min 26 sec) 
Heartbeat CPU 0 instructions: 1050000002 cycles: 753497372 heartbeat IPC: 1.31707 cumulative IPC: 0.980492 (Simulation time: 2 hr 32 min 49 sec) 
Heartbeat CPU 0 instructions: 1060000002 cycles: 761107504 heartbeat IPC: 1.31404 cumulative IPC: 0.984956 (Simulation time: 2 hr 34 min 10 sec) 
Heartbeat CPU 0 instructions: 1070000001 cycles: 771837593 heartbeat IPC: 0.931959 cumulative IPC: 0.983975 (Simulation time: 2 hr 35 min 51 sec) 
Heartbeat CPU 0 instructions: 1080000000 cycles: 784148956 heartbeat IPC: 0.812258 cumulative IPC: 0.980401 (Simulation time: 2 hr 37 min 41 sec) 
Heartbeat CPU 0 instructions: 1090000002 cycles: 797742923 heartbeat IPC: 0.735621 cumulative IPC: 0.974903 (Simulation time: 2 hr 39 min 38 sec) 
Heartbeat CPU 0 instructions: 1100000003 cycles: 814468602 heartbeat IPC: 0.597883 cumulative IPC: 0.964763 (Simulation time: 2 hr 42 min 3 sec) 
Heartbeat CPU 0 instructions: 1110000001 cycles: 830924542 heartbeat IPC: 0.607683 cumulative IPC: 0.955558 (Simulation time: 2 hr 44 min 28 sec) 
Heartbeat CPU 0 instructions: 1120000002 cycles: 847357246 heartbeat IPC: 0.608543 cumulative IPC: 0.94685 (Simulation time: 2 hr 46 min 52 sec) 
Heartbeat CPU 0 instructions: 1130000001 cycles: 862474670 heartbeat IPC: 0.661488 cumulative IPC: 0.94041 (Simulation time: 2 hr 49 min 6 sec) 
Heartbeat CPU 0 instructions: 1140000003 cycles: 870958040 heartbeat IPC: 1.17878 cumulative IPC: 0.943391 (Simulation time: 2 hr 50 min 31 sec) 
Heartbeat CPU 0 instructions: 1150000000 cycles: 879377473 heartbeat IPC: 1.18773 cumulative IPC: 0.946386 (Simulation time: 2 hr 51 min 56 sec) 
Heartbeat CPU 0 instructions: 1160000004 cycles: 887843976 heartbeat IPC: 1.18113 cumulative IPC: 0.949245 (Simulation time: 2 hr 53 min 21 sec) 
Heartbeat CPU 0 instructions: 1170000000 cycles: 896312836 heartbeat IPC: 1.1808 cumulative IPC: 0.952031 (Simulation time: 2 hr 54 min 46 sec) 
Heartbeat CPU 0 instructions: 1180000003 cycles: 904783048 heartbeat IPC: 1.18061 cumulative IPC: 0.954749 (Simulation time: 2 hr 56 min 13 sec) 
Heartbeat CPU 0 instructions: 1190000003 cycles: 913267228 heartbeat IPC: 1.17866 cumulative IPC: 0.957385 (Simulation time: 2 hr 57 min 40 sec) 
Heartbeat CPU 0 instructions: 1200000000 cycles: 921768335 heartbeat IPC: 1.17632 cumulative IPC: 0.959938 (Simulation time: 2 hr 59 min 6 sec) 
Heartbeat CPU 0 instructions: 1210000000 cycles: 930227657 heartbeat IPC: 1.18213 cumulative IPC: 0.962486 (Simulation time: 3 hr 0 min 31 sec) 
Heartbeat CPU 0 instructions: 1220000003 cycles: 938712941 heartbeat IPC: 1.17851 cumulative IPC: 0.964942 (Simulation time: 3 hr 1 min 57 sec) 
Heartbeat CPU 0 instructions: 1230000000 cycles: 947172218 heartbeat IPC: 1.18213 cumulative IPC: 0.967377 (Simulation time: 3 hr 3 min 22 sec) 
Heartbeat CPU 0 instructions: 1240000002 cycles: 955640076 heartbeat IPC: 1.18094 cumulative IPC: 0.969747 (Simulation time: 3 hr 4 min 47 sec) 
Heartbeat CPU 0 instructions: 1250000002 cycles: 964121957 heartbeat IPC: 1.17898 cumulative IPC: 0.972047 (Simulation time: 3 hr 6 min 12 sec) 
Heartbeat CPU 0 instructions: 1260000001 cycles: 972610751 heartbeat IPC: 1.17802 cumulative IPC: 0.974289 (Simulation time: 3 hr 7 min 36 sec) 
Heartbeat CPU 0 instructions: 1270000002 cycles: 981073912 heartbeat IPC: 1.18159 cumulative IPC: 0.976514 (Simulation time: 3 hr 9 min 1 sec) 
Heartbeat CPU 0 instructions: 1280000002 cycles: 989000433 heartbeat IPC: 1.26159 cumulative IPC: 0.979351 (Simulation time: 3 hr 10 min 20 sec) 
Heartbeat CPU 0 instructions: 1290000003 cycles: 997233604 heartbeat IPC: 1.2146 cumulative IPC: 0.981758 (Simulation time: 3 hr 11 min 40 sec) 
Heartbeat CPU 0 instructions: 1300000004 cycles: 1005220756 heartbeat IPC: 1.25201 cumulative IPC: 0.984414 (Simulation time: 3 hr 12 min 59 sec) 
Heartbeat CPU 0 instructions: 1310000000 cycles: 1013198866 heartbeat IPC: 1.25343 cumulative IPC: 0.987029 (Simulation time: 3 hr 14 min 18 sec) 
Heartbeat CPU 0 instructions: 1320000004 cycles: 1021121150 heartbeat IPC: 1.26226 cumulative IPC: 0.989661 (Simulation time: 3 hr 15 min 37 sec) 
Heartbeat CPU 0 instructions: 1330000000 cycles: 1029094312 heartbeat IPC: 1.25421 cumulative IPC: 0.992182 (Simulation time: 3 hr 16 min 56 sec) 
Heartbeat CPU 0 instructions: 1340000000 cycles: 1038324593 heartbeat IPC: 1.08339 cumulative IPC: 0.993177 (Simulation time: 3 hr 18 min 23 sec) 
Heartbeat CPU 0 instructions: 1350000002 cycles: 1050601730 heartbeat IPC: 0.814522 cumulative IPC: 0.990621 (Simulation time: 3 hr 20 min 12 sec) 
Heartbeat CPU 0 instructions: 1360000003 cycles: 1063508797 heartbeat IPC: 0.774769 cumulative IPC: 0.987422 (Simulation time: 3 hr 22 min 4 sec) 
Heartbeat CPU 0 instructions: 1370000000 cycles: 1079310273 heartbeat IPC: 0.632852 cumulative IPC: 0.981104 (Simulation time: 3 hr 24 min 19 sec) 
Heartbeat CPU 0 instructions: 1380000004 cycles: 1095651131 heartbeat IPC: 0.611963 cumulative IPC: 0.974425 (Simulation time: 3 hr 26 min 40 sec) 
Heartbeat CPU 0 instructions: 1390000000 cycles: 1111964730 heartbeat IPC: 0.612985 cumulative IPC: 0.968012 (Simulation time: 3 hr 29 min 0 sec) 
Heartbeat CPU 0 instructions: 1400000003 cycles: 1128322975 heartbeat IPC: 0.611313 cumulative IPC: 0.961776 (Simulation time: 3 hr 31 min 22 sec) 
Heartbeat CPU 0 instructions: 1410000004 cycles: 1138499030 heartbeat IPC: 0.982699 cumulative IPC: 0.962001 (Simulation time: 3 hr 33 min 0 sec) 
Heartbeat CPU 0 instructions: 1420000001 cycles: 1147767948 heartbeat IPC: 1.07887 cumulative IPC: 0.963135 (Simulation time: 3 hr 34 min 32 sec) 
Heartbeat CPU 0 instructions: 1430000001 cycles: 1157024550 heartbeat IPC: 1.08031 cumulative IPC: 0.96426 (Simulation time: 3 hr 36 min 4 sec) 
Heartbeat CPU 0 instructions: 1440000004 cycles: 1166275317 heartbeat IPC: 1.08099 cumulative IPC: 0.965369 (Simulation time: 3 hr 37 min 36 sec) 
Heartbeat CPU 0 instructions: 1450000001 cycles: 1175568411 heartbeat IPC: 1.07607 cumulative IPC: 0.966415 (Simulation time: 3 hr 39 min 7 sec) 
Heartbeat CPU 0 instructions: 1460000003 cycles: 1184859433 heartbeat IPC: 1.07631 cumulative IPC: 0.967444 (Simulation time: 3 hr 40 min 40 sec) 
Heartbeat CPU 0 instructions: 1470000002 cycles: 1194189425 heartbeat IPC: 1.07181 cumulative IPC: 0.968417 (Simulation time: 3 hr 42 min 11 sec) 
Heartbeat CPU 0 instructions: 1480000001 cycles: 1203411605 heartbeat IPC: 1.08434 cumulative IPC: 0.969474 (Simulation time: 3 hr 43 min 43 sec) 
Heartbeat CPU 0 instructions: 1490000003 cycles: 1212743381 heartbeat IPC: 1.07161 cumulative IPC: 0.970408 (Simulation time: 3 hr 45 min 15 sec) 
Heartbeat CPU 0 instructions: 1500000002 cycles: 1222010698 heartbeat IPC: 1.07906 cumulative IPC: 0.971386 (Simulation time: 3 hr 46 min 46 sec) 
Heartbeat CPU 0 instructions: 1510000001 cycles: 1231194866 heartbeat IPC: 1.08883 cumulative IPC: 0.972425 (Simulation time: 3 hr 48 min 17 sec) 
Heartbeat CPU 0 instructions: 1520000004 cycles: 1240397395 heartbeat IPC: 1.08666 cumulative IPC: 0.973428 (Simulation time: 3 hr 49 min 49 sec) 
Heartbeat CPU 0 instructions: 1530000003 cycles: 1249627631 heartbeat IPC: 1.0834 cumulative IPC: 0.974388 (Simulation time: 3 hr 51 min 21 sec) 
Heartbeat CPU 0 instructions: 1540000003 cycles: 1258845481 heartbeat IPC: 1.08485 cumulative IPC: 0.975343 (Simulation time: 3 hr 52 min 53 sec) 
Heartbeat CPU 0 instructions: 1550000002 cycles: 1267991089 heartbeat IPC: 1.09342 cumulative IPC: 0.976348 (Simulation time: 3 hr 54 min 22 sec) 
Heartbeat CPU 0 instructions: 1560000002 cycles: 1276601300 heartbeat IPC: 1.16141 cumulative IPC: 0.977817 (Simulation time: 3 hr 55 min 46 sec) 
Heartbeat CPU 0 instructions: 1570000000 cycles: 1284968314 heartbeat IPC: 1.19517 cumulative IPC: 0.979482 (Simulation time: 3 hr 57 min 8 sec) 
Heartbeat CPU 0 instructions: 1580000004 cycles: 1293295802 heartbeat IPC: 1.20084 cumulative IPC: 0.981157 (Simulation time: 3 hr 58 min 32 sec) 
Heartbeat CPU 0 instructions: 1590000000 cycles: 1301583331 heartbeat IPC: 1.20663 cumulative IPC: 0.982842 (Simulation time: 3 hr 59 min 54 sec) 
Heartbeat CPU 0 instructions: 1600000000 cycles: 1309562870 heartbeat IPC: 1.25321 cumulative IPC: 0.984773 (Simulation time: 4 hr 1 min 14 sec) 
Heartbeat CPU 0 instructions: 1610000003 cycles: 1322130319 heartbeat IPC: 0.795707 cumulative IPC: 0.98267 (Simulation time: 4 hr 3 min 7 sec) 
Heartbeat CPU 0 instructions: 1620000000 cycles: 1335146325 heartbeat IPC: 0.768285 cumulative IPC: 0.980227 (Simulation time: 4 hr 5 min 0 sec) 
Heartbeat CPU 0 instructions: 1630000002 cycles: 1351439290 heartbeat IPC: 0.613762 cumulative IPC: 0.975075 (Simulation time: 4 hr 7 min 22 sec) 
Heartbeat CPU 0 instructions: 1640000004 cycles: 1367737826 heartbeat IPC: 0.613552 cumulative IPC: 0.970061 (Simulation time: 4 hr 9 min 43 sec) 
Heartbeat CPU 0 instructions: 1650000001 cycles: 1384057064 heartbeat IPC: 0.612774 cumulative IPC: 0.965168 (Simulation time: 4 hr 12 min 3 sec) 
Heartbeat CPU 0 instructions: 1660000002 cycles: 1394580053 heartbeat IPC: 0.9503 cumulative IPC: 0.965038 (Simulation time: 4 hr 13 min 44 sec) 
Heartbeat CPU 0 instructions: 1670000002 cycles: 1401659164 heartbeat IPC: 1.41261 cumulative IPC: 0.967658 (Simulation time: 4 hr 15 min 1 sec) 
Heartbeat CPU 0 instructions: 1680000000 cycles: 1408758303 heartbeat IPC: 1.40862 cumulative IPC: 0.970232 (Simulation time: 4 hr 16 min 19 sec) 
Heartbeat CPU 0 instructions: 1690000000 cycles: 1415901256 heartbeat IPC: 1.39998 cumulative IPC: 0.972741 (Simulation time: 4 hr 17 min 36 sec) 
Heartbeat CPU 0 instructions: 1700000001 cycles: 1423030104 heartbeat IPC: 1.40275 cumulative IPC: 0.975233 (Simulation time: 4 hr 18 min 53 sec) 
Heartbeat CPU 0 instructions: 1710000004 cycles: 1430151285 heartbeat IPC: 1.40426 cumulative IPC: 0.977701 (Simulation time: 4 hr 20 min 11 sec) 
Heartbeat CPU 0 instructions: 1720000000 cycles: 1437230741 heartbeat IPC: 1.41254 cumulative IPC: 0.980174 (Simulation time: 4 hr 21 min 28 sec) 
Heartbeat CPU 0 instructions: 1730000000 cycles: 1444329695 heartbeat IPC: 1.40866 cumulative IPC: 0.982604 (Simulation time: 4 hr 22 min 45 sec) 
Heartbeat CPU 0 instructions: 1740000002 cycles: 1451421516 heartbeat IPC: 1.41008 cumulative IPC: 0.985013 (Simulation time: 4 hr 24 min 3 sec) 
Heartbeat CPU 0 instructions: 1750000002 cycles: 1458533654 heartbeat IPC: 1.40605 cumulative IPC: 0.987378 (Simulation time: 4 hr 25 min 20 sec) 
Heartbeat CPU 0 instructions: 1760000001 cycles: 1465647534 heartbeat IPC: 1.4057 cumulative IPC: 0.989715 (Simulation time: 4 hr 26 min 37 sec) 
Heartbeat CPU 0 instructions: 1770000000 cycles: 1472766563 heartbeat IPC: 1.40469 cumulative IPC: 0.992023 (Simulation time: 4 hr 27 min 55 sec) 
Heartbeat CPU 0 instructions: 1780000004 cycles: 1479884444 heartbeat IPC: 1.40491 cumulative IPC: 0.994306 (Simulation time: 4 hr 29 min 12 sec) 
Heartbeat CPU 0 instructions: 1790000000 cycles: 1487022011 heartbeat IPC: 1.40104 cumulative IPC: 0.996549 (Simulation time: 4 hr 30 min 29 sec) 
Heartbeat CPU 0 instructions: 1800000004 cycles: 1494136366 heartbeat IPC: 1.40561 cumulative IPC: 0.998785 (Simulation time: 4 hr 31 min 46 sec) 
Heartbeat CPU 0 instructions: 1810000000 cycles: 1503459590 heartbeat IPC: 1.07259 cumulative IPC: 0.999309 (Simulation time: 4 hr 33 min 15 sec) 
Heartbeat CPU 0 instructions: 1820000000 cycles: 1518888802 heartbeat IPC: 0.648121 cumulative IPC: 0.995224 (Simulation time: 4 hr 35 min 17 sec) 
Heartbeat CPU 0 instructions: 1830000004 cycles: 1534354477 heartbeat IPC: 0.646593 cumulative IPC: 0.991206 (Simulation time: 4 hr 37 min 19 sec) 
Heartbeat CPU 0 instructions: 1840000000 cycles: 1549748106 heartbeat IPC: 0.649619 cumulative IPC: 0.987331 (Simulation time: 4 hr 39 min 21 sec) 
Heartbeat CPU 0 instructions: 1850000004 cycles: 1565201486 heartbeat IPC: 0.647108 cumulative IPC: 0.983501 (Simulation time: 4 hr 41 min 24 sec) 
Heartbeat CPU 0 instructions: 1860000000 cycles: 1589039661 heartbeat IPC: 0.419495 cumulative IPC: 0.973873 (Simulation time: 4 hr 44 min 26 sec) 
Heartbeat CPU 0 instructions: 1870000002 cycles: 1604777894 heartbeat IPC: 0.635395 cumulative IPC: 0.970101 (Simulation time: 4 hr 46 min 41 sec) 
Heartbeat CPU 0 instructions: 1880000002 cycles: 1612504424 heartbeat IPC: 1.29424 cumulative IPC: 0.971865 (Simulation time: 4 hr 48 min 1 sec) 
Heartbeat CPU 0 instructions: 1890000000 cycles: 1620201661 heartbeat IPC: 1.29917 cumulative IPC: 0.97363 (Simulation time: 4 hr 49 min 22 sec) 
Heartbeat CPU 0 instructions: 1900000002 cycles: 1627908900 heartbeat IPC: 1.29748 cumulative IPC: 0.975369 (Simulation time: 4 hr 50 min 42 sec) 
Heartbeat CPU 0 instructions: 1910000001 cycles: 1635591070 heartbeat IPC: 1.30172 cumulative IPC: 0.977106 (Simulation time: 4 hr 52 min 2 sec) 
Heartbeat CPU 0 instructions: 1920000000 cycles: 1643282107 heartbeat IPC: 1.30021 cumulative IPC: 0.978819 (Simulation time: 4 hr 53 min 23 sec) 
Heartbeat CPU 0 instructions: 1930000004 cycles: 1650988991 heartbeat IPC: 1.29754 cumulative IPC: 0.980503 (Simulation time: 4 hr 54 min 44 sec) 
Heartbeat CPU 0 instructions: 1940000004 cycles: 1659370590 heartbeat IPC: 1.19309 cumulative IPC: 0.981718 (Simulation time: 4 hr 56 min 9 sec) 
Heartbeat CPU 0 instructions: 1950000001 cycles: 1671927510 heartbeat IPC: 0.796373 cumulative IPC: 0.980145 (Simulation time: 4 hr 57 min 59 sec) 
Heartbeat CPU 0 instructions: 1960000000 cycles: 1684712837 heartbeat IPC: 0.782147 cumulative IPC: 0.978448 (Simulation time: 4 hr 59 min 51 sec) 
Heartbeat CPU 0 instructions: 1970000003 cycles: 1700224779 heartbeat IPC: 0.644665 cumulative IPC: 0.975014 (Simulation time: 5 hr 2 min 4 sec) 
Heartbeat CPU 0 instructions: 1980000003 cycles: 1716676710 heartbeat IPC: 0.607831 cumulative IPC: 0.971051 (Simulation time: 5 hr 4 min 27 sec) 
Heartbeat CPU 0 instructions: 1990000003 cycles: 1733108053 heartbeat IPC: 0.608593 cumulative IPC: 0.967185 (Simulation time: 5 hr 6 min 50 sec) 
*** Reached end of trace: traces/437.leslie3d-149B.champsimtrace.xz
Heartbeat CPU 0 instructions: 2000000001 cycles: 1749581521 heartbeat IPC: 0.607037 cumulative IPC: 0.963374 (Simulation time: 5 hr 9 min 13 sec) 
Finished CPU 0 instructions: 1500000000 cycles: 1557027863 cumulative IPC: 0.963374 (Simulation time: 5 hr 9 min 13 sec) 

ChampSim completed all CPUs

Region of Interest Statistics

CPU 0 cumulative IPC: 0.963374 instructions: 1500000000 cycles: 1557027863
cpu0_DTLB TOTAL     ACCESS:  335397753  HIT:  335050952  MISS:     346801
cpu0_DTLB LOAD      ACCESS:  305087497  HIT:  304809779  MISS:     277718
cpu0_DTLB RFO       ACCESS:   30310256  HIT:   30241173  MISS:      69083
cpu0_DTLB PREFETCH  ACCESS:          0  HIT:          0  MISS:          0
cpu0_DTLB WRITEBACK ACCESS:          0  HIT:          0  MISS:          0
cpu0_DTLB TRANSLATION ACCESS:          0  HIT:          0  MISS:          0
cpu0_DTLB PREFETCH  REQUESTED:          0  ISSUED:          0  USEFUL:          0  USELESS:          0
cpu0_DTLB AVERAGE MISS LATENCY: 15.7081 cycles
cpu0_ITLB TOTAL     ACCESS:   17254423  HIT:   17254365  MISS:         58
cpu0_ITLB LOAD      ACCESS:   17254423  HIT:   17254365  MISS:         58
cpu0_ITLB RFO       ACCESS:          0  HIT:          0  MISS:          0
cpu0_ITLB PREFETCH  ACCESS:          0  HIT:          0  MISS:          0
cpu0_ITLB WRITEBACK ACCESS:          0  HIT:          0  MISS:          0
cpu0_ITLB TRANSLATION ACCESS:          0  HIT:          0  MISS:          0
cpu0_ITLB PREFETCH  REQUESTED:          0  ISSUED:          0  USEFUL:          0  USELESS:          0
cpu0_ITLB AVERAGE MISS LATENCY: 169.345 cycles
cpu0_L1I TOTAL     ACCESS:   31637003  HIT:   31635683  MISS:       1320
cpu0_L1I LOAD      ACCESS:   31637003  HIT:   31635683  MISS:       1320
cpu0_L1I RFO       ACCESS:          0  HIT:          0  MISS:          0
cpu0_L1I PREFETCH  ACCESS:          0  HIT:          0  MISS:          0
cpu0_L1I WRITEBACK ACCESS:          0  HIT:          0  MISS:          0
cpu0_L1I TRANSLATION ACCESS:          0  HIT:          0  MISS:          0
cpu0_L1I PREFETCH  REQUESTED:          0  ISSUED:          0  USEFUL:          0  USELESS:          0
cpu0_L1I AVERAGE MISS LATENCY: 306.147 cycles
cpu0_STLB TOTAL     ACCESS:     346859  HIT:     179540  MISS:     167319
cpu0_STLB LOAD      ACCESS:     277776  HIT:     156050  MISS:     121726
cpu0_STLB RFO       ACCESS:      69083  HIT:      23490  MISS:      45593
cpu0_STLB PREFETCH  ACCESS:          0  HIT:          0  MISS:          0
cpu0_STLB WRITEBACK ACCESS:          0  HIT:          0  MISS:          0
cpu0_STLB TRANSLATION ACCESS:          0  HIT:          0  MISS:          0
cpu0_STLB PREFETCH  REQUESTED:          0  ISSUED:          0  USEFUL:          0  USELESS:          0
cpu0_STLB AVERAGE MISS LATENCY: 13.907 cycles
cpu0_L1D TOTAL     ACCESS:  397622248  HIT:  382673590  MISS:   14948658
cpu0_L1D LOAD      ACCESS:  360400446  HIT:  348920845  MISS:   11479601
cpu0_L1D RFO       ACCESS:   37064263  HIT:   33613361  MISS:    3450902
cpu0_L1D PREFETCH  ACCESS:          0  HIT:          0  MISS:          0
cpu0_L1D WRITEBACK ACCESS:          0  HIT:          0  MISS:          0
cpu0_L1D TRANSLATION ACCESS:     157539  HIT:     139384  MISS:      18155
cpu0_L1D PREFETCH  REQUESTED:          0  ISSUED:          0  USEFUL:          0  USELESS:          0
cpu0_L1D AVERAGE MISS LATENCY: 245.218 cycles
cpu0_L2C TOTAL     ACCESS:   19540502  HIT:    7983960  MISS:   11556542
cpu0_L2C LOAD      ACCESS:   11480767  HIT:    2557005  MISS:    8923762
cpu0_L2C RFO       ACCESS:    3450883  HIT:     823326  MISS:    2627557
cpu0_L2C PREFETCH  ACCESS:          0  HIT:          0  MISS:          0
cpu0_L2C WRITEBACK ACCESS:    4590697  HIT:    4586118  MISS:       4579
cpu0_L2C TRANSLATION ACCESS:      18155  HIT:      17511  MISS:        644
cpu0_L2C PREFETCH  REQUESTED:          0  ISSUED:          0  USEFUL:          0  USELESS:          0
cpu0_L2C AVERAGE MISS LATENCY: 302.985 cycles
LLC TOTAL     ACCESS:   15034911  HIT:    4466948  MISS:   10567963
LLC LOAD      ACCESS:    8923759  HIT:     828951  MISS:    8094808
LLC RFO       ACCESS:    2627557  HIT:     170497  MISS:    2457060
LLC PREFETCH  ACCESS:          0  HIT:          0  MISS:          0
LLC WRITEBACK ACCESS:    3482951  HIT:    3467185  MISS:      15766
LLC TRANSLATION ACCESS:        644  HIT:        315  MISS:        329
LLC PREFETCH  REQUESTED:          0  ISSUED:          0  USEFUL:          0  USELESS:          0
LLC AVERAGE MISS LATENCY: 308.372 cycles
~~~~~~~~~~Reuse Distance Profiler output~~~~~~~~~~
0	19721936	14202704
1	24528944	19547904
2	33582464	28472064
3	36424048	33978768
4	36728944	35562144
5	32494832	31394992
6	32438496	31166032
7	30032288	29025248
8	24289216	23067136
9	19354784	18565072
10	16483136	15437856
11	13820496	12649856
12	14016736	12963344
13	15835872	14077040
14	15033008	13270016
15	9838512	8636832
16	7949936	6953312
17	7135456	6350528
18	6173632	5533232
19	6485328	6035920
20	5715392	5281760
21	5132016	4695584
22	5446256	5061968
23	5120560	4768352
24	5227264	4869168
25	4476432	4095920
26	4456032	4112368
27	4252592	3875040
28	4233456	3864784
29	5647488	5130656
30	4944224	4479312
31	4638496	4257040
32	3711088	3309024
33	3559696	3225504
34	3754752	3478960
35	3264672	3042544
36	4076944	3829968
37	4618128	4277008
38	3240544	2970800
39	2708960	2543392
40	2674080	2491328
41	2339712	2183424
42	2136432	1995216
43	1975792	1862592
44	1865184	1595168
45	1891600	1754768
46	1967712	1876128
47	1885936	1772816
48	1753520	1692864
49	2281456	2162208
50	1928496	1818768
51	1762784	1530992
52	1367696	1299552
53	1491488	1400096
54	1326432	1136336
55	1852416	1632576
56	1508160	1308976
57	1241584	1042976
58	905840	783152
59	1054896	742272
60	1026976	892016
61	893328	775248
62	758896	659088
63	399216	314912
64	821072	710192
66	1035152	868704
68	993984	827408
70	1054032	961296
72	1226688	1061744
74	1087088	869808
76	969728	770240
78	612064	521904
80	406032	347152
82	494624	457920
84	307328	282496
86	453600	442832
88	340320	271104
90	329904	320656
92	259728	251952
94	174608	165536
96	124944	117040
98	221136	153248
100	230704	220784
102	168560	162432
104	163520	160448
106	93376	89712
108	82224	79856
110	204304	202224
112	73504	71472
114	131888	129280
116	179088	177328
118	44544	42528
120	42896	40704
122	44608	42144
124	27584	25232
126	74768	73296
128	52000	50080
132	26496	24848
136	27168	25904
140	23536	22176
144	18704	18080
148	20560	20160
152	23200	23120
156	54784	54672
160	48976	48960
164	34384	34384
168	41744	41712
172	20640	20640
176	13280	13280
180	4864	4864
184	9952	6256
188	12448	3792
192	17824	8656
196	15584	10640
200	8816	4048
204	11408	6656
208	4960	3232
212	4848	4720
216	3200	3200
220	1824	1824
224	2640	2640
228	2896	2896
232	2608	2608
236	1632	1632
240	2608	2608
244	1520	1520
248	1952	1952
252	1888	1888
256	3744	3744
264	6944	6944
272	5632	5632
280	10176	10160
288	13312	13312
296	15856	15824
304	16048	16000
312	22752	22720
320	29632	29600
328	30656	30608
336	26944	26720
344	25776	24160
352	33648	30880
360	45200	43008
368	44496	44224
376	44640	41728
384	45872	35808
392	45600	35824
400	33840	31088
408	29232	28976
416	35760	35760
424	33504	33344
432	39744	39008
440	46704	45952
448	37232	37216
456	43024	43024
464	40160	40160
472	43264	43264
480	42784	42752
488	43536	43536
496	47280	47280
504	48288	48288
512	105824	105760
528	126352	126112
544	165072	162768
560	155424	150928
576	115664	115168
592	72400	69488
608	61840	56448
624	75680	71152
640	87824	87520
656	82400	82384
672	78016	77968
688	38048	38016
704	25376	24912
720	34560	32784
736	55584	49008
752	54096	52032
768	61168	60528
784	132688	131520
800	52848	51376
816	45408	44656
832	42208	42208
848	36336	36336
864	30160	30144
880	26160	26112
896	23040	22560
912	26832	26032
928	31120	29680
944	22784	22320
960	16960	16448
976	16160	15744
992	25456	24976
1008	23296	22688
1024	40208	37136
1056	50928	47376
1088	97120	96064
1120	11664	11632
1152	18144	16640
1184	11168	10960
1216	145584	145520
1248	186528	186256
1280	39856	36144
1312	36832	35056
1344	34848	32128
1376	33184	32096
1408	30944	28288
1440	21344	19056
1472	24816	23984
1504	16368	15968
1536	18864	18480
1568	19280	16784
1600	15696	13472
1632	19536	15888
1664	9104	8736
1696	14784	13360
1728	53248	51664
1760	150624	150624
1792	104352	104304
1824	51568	51024
1856	36352	33648
1888	25776	17904
1920	19008	16400
1952	15088	14416
1984	15056	13488
2016	14400	12272
2048	18768	18224
2112	8912	6000
2176	18240	11280
2240	10912	10160
2304	16064	12304
2368	21440	18656
2432	16432	10768
2496	13056	12384
2560	13968	10112
2624	20544	19168
2688	34240	26992
2752	23056	21648
2816	14672	13664
2880	20960	17600
2944	20352	17152
3008	17392	12304
3072	27232	21296
3136	32064	15712
3200	34256	15120
3264	56192	31040
3328	60352	41920
3392	35456	18400
3456	37280	15808
3520	47360	28080
3584	43600	34208
3648	23344	22816
3712	21680	19504
3776	24288	18336
3840	15488	14800
3904	17440	15312
3968	25968	25552
4032	35088	29216
4096	84096	81616
4224	81584	78096
4352	91536	86736
4480	89584	82720
4608	82480	74848
4736	85088	81120
4864	78336	65008
4992	109888	87648
5120	127344	106048
5248	108336	92544
5376	111136	93856
5504	102448	85088
5632	90992	70832
5760	98688	81552
5888	70512	59920
6016	37776	36144
6144	52752	51664
6272	34752	25264
6400	42784	35424
6528	70016	55456
6656	48976	39936
6784	53968	39312
6912	54544	41280
7040	32768	19936
7168	29024	18160
7296	17104	6640
7424	30656	20704
7552	74816	64800
7680	71584	61680
7808	65456	54512
7936	58704	48288
8064	61696	51488
8192	128592	101104
8448	145712	124768
8704	127680	110240
8960	138256	126064
9216	66064	60224
9472	29008	28032
9728	53600	41808
9984	108240	70048
10240	141184	78432
10496	138720	79568
10752	148976	94704
11008	162864	108560
11264	163680	108240
11520	141744	95104
11776	94688	68800
12032	85328	62256
12288	76480	60752
12544	91680	86240
12800	84336	81616
13056	76048	74048
13312	85120	68944
13568	108064	78096
13824	140912	98304
14080	165408	110032
14336	156672	99696
14592	149232	91616
14848	141392	83344
15104	138400	77488
15360	115216	63040
15616	72496	44288
15872	66656	39280
16128	95504	35584
16384	183808	74400
16896	128000	74400
17408	107104	64144
17920	114320	67856
18432	93984	48960
18944	201616	94736
19456	233408	100304
19968	250144	172624
20480	75808	34000
20992	28544	10976
21504	12192	6544
22016	12624	4688
22528	15680	9952
23040	22288	7392
23552	231424	164608
24064	32512	12576
24576	67808	27296
25088	37664	12560
25600	7056	2256
26112	16288	11840
26624	11680	6416
27136	5808	1104
27648	4960	272
28160	6256	2960
28672	7936	1600
29184	5344	672
29696	11200	7664
30208	208368	159360
30720	3952	3904
31232	7680	4288
31744	4960	4960
32256	5104	5104
32768	9104	9104
33792	3488	3488
34816	192	160
35840	992	128
36864	240	240
37888	2608	1376
38912	4512	1648
39936	8032	4336
40960	10080	10080
41984	9936	9920
43008	6512	6512
44032	0	0
45056	752	0
46080	208	208
47104	56080	53632
48128	6288	4000
49152	4496	1680
50176	4704	2032
51200	3328	1808
52224	640	608
53248	176	64
54272	2576	0
55296	2736	0
56320	2048	400
57344	6048	1712
58368	7136	2032
59392	6800	1824
60416	57696	54752
61440	9344	2112
62464	6832	512
63488	5168	848
64512	3344	944
65536	13280	4288
67584	14736	6112
69632	7680	3328
71680	848	480
73728	288	288
75776	3392	1216
77824	7904	3280
79872	3248	2592
81920	1696	1072
83968	1456	752
86016	9936	5872
88064	9696	4128
90112	5280	2688
92160	1328	416
94208	1936	464
96256	6736	2112
98304	7072	3168
100352	5664	2224
102400	880	576
104448	5472	2752
106496	11520	5728
108544	8640	4048
110592	1536	1072
112640	688	656
114688	3136	1456
116736	7424	3168
118784	5248	2704
120832	688	688
122880	1056	1008
124928	9216	3936
126976	9120	4256
129024	4992	2336
131072	3104	1696
135168	12576	6016
139264	4144	2864
143360	13408	6928
147456	11520	5168
151552	2080	928
155648	14864	7424
159744	10864	10256
163840	293856	284448
167936	260368	256976
172032	5504	2512
176128	9872	4928
180224	7792	4448
184320	16032	8656
188416	4704	1984
192512	8176	3168
196608	7152	3760
200704	7664	4560
204800	16912	8048
208896	3712	2384
212992	11360	4400
217088	6032	3808
221184	12736	6256
225280	11824	6192
229376	5472	2544
233472	10416	5248
237568	6512	3776
241664	14528	7120
245760	8688	4272
249856	5904	2592
253952	28800	11968
258048	29696	12976
262144	56160	21504
270336	16448	7600
278528	23312	12160
286720	16304	7280
294912	18976	10816
303104	18656	11552
311296	10064	5328
319488	11120	5664
327680	46592	17072
335872	51360	49056
344064	423696	421920
352256	220992	218928
360448	6048	1968
368640	7040	2432
376832	5296	2448
385024	3056	1600
393216	4224	2288
401408	2336	1392
409600	4112	2752
417792	2048	832
425984	2944	1856
434176	2320	1152
442368	2128	1296
450560	12576	11392
458752	65200	64448
466944	48048	47344
475136	2080	944
483328	1824	1168
491520	2176	880
499712	2128	1536
507904	2224	976
516096	1648	928
524288	4240	2336
540672	4336	2624
557056	4080	2448
573440	4320	2432
589824	4432	2528
606208	3904	2240
622592	3984	2240
638976	4048	2272
655360	4288	2272
671744	3824	2144
688128	4144	2416
704512	4992	2720
720896	4368	2352
737280	4448	2496
753664	4688	2480
770048	4560	2768
786432	4608	2912
802816	3888	2432
819200	4288	2144
835584	4528	2576
851968	4752	2560
868352	4096	2096
884736	4384	2320
901120	4304	2752
917504	4368	2608
933888	4848	2784
950272	4160	2464
966656	4528	2288
983040	3792	2000
999424	4224	1984
1015808	4096	2560
1032192	3744	2176
1048576	9312	5456
1081344	8240	4576
1114112	8352	4688
1146880	8976	5280
1179648	8864	5248
1212416	8576	5232
1245184	8864	5440
1277952	9216	5488
1310720	9344	5056
1343488	8864	4912
1376256	8848	4624
1409024	19504	15760
1441792	45648	41712
1474560	32800	29776
1507328	14800	10784
1540096	16192	12096
1572864	14688	11088
1605632	15104	11344
1638400	16176	12288
1671168	13856	10288
1703936	64672	61184
1736704	25744	22176
1769472	13840	10160
1802240	8912	5056
1835008	149856	146224
1867776	9504	5712
1900544	8800	5408
1933312	9472	5840
1966080	9840	6464
1998848	8992	5072
2031616	9408	5584
2064384	9120	5664
2097152	19936	11696
2162688	18256	11376
2228224	18864	11200
2293760	20336	12592
2359296	18032	11552
2424832	15520	10304
2490368	12016	7584
2555904	9136	6736
2621440	6896	5408
2686976	602480	601456
2752512	6080	5360
2818048	158432	157472
2883584	144912	143840
2949120	5600	4640
3014656	6080	4768
3080192	6192	5392
3145728	5792	4736
3211264	22128	21088
3276800	56592	55424
3342336	65840	64912
3407872	18336	16880
3473408	6640	5392
3538944	9712	8720
3604480	152272	151536
3670016	153456	152656
3735552	7904	7072
3801088	6480	5744
3866624	6432	5632
3932160	6352	5856
3997696	6800	6080
4063232	6576	5616
4128768	6320	5792
4194304	77456	75984
4325376	14128	12640
4456448	12512	10784
4587520	12384	10912
4718592	14080	12592
4849664	13520	12080
4980736	13856	12768
5111808	11744	10912
5242880	12992	11920
5373952	14176	12864
5505024	42672	41328
5636096	19232	17968
5767168	14880	13600
5898240	14416	12800
6029312	17152	15520
6160384	16288	14704
6291456	15472	14080
6422528	16976	15664
6553600	15616	13888
6684672	17664	16144
6815744	16128	14624
6946816	16400	14656
7077888	21376	19696
7208960	23824	22512
7340032	25696	24128
7471104	26032	24384
7602176	22864	21584
7733248	25664	24512
7864320	24064	22400
7995392	26816	25120
8126464	31488	29360
8257536	29520	27376
8388608	63664	59408
8650752	77856	73344
8912896	77136	73088
9175040	83376	78992
9437184	84400	79824
9699328	85888	81456
9961472	71728	67968
10223616	63456	60144
10485760	66864	62144
10747904	66160	61600
11010048	70160	64896
11272192	66080	60976
11534336	70384	65312
11796480	84544	79744
12058624	85648	80064
12320768	68832	63472
12582912	51568	47328
12845056	111744	107488
13107200	56848	51440
13369344	52608	47264
13631488	55648	50144
13893632	71552	66256
14155776	84576	78944
14417920	91920	85392
14680064	93248	85952
14942208	90496	83136
15204352	61824	55888
15466496	51216	45072
15728640	51216	42496
15990784	53072	43968
16252928	51504	41984
16515072	35264	26080
16777216	101952	85440
17301504	72128	52400
17825792	73328	54624
18350080	96016	76272
18874368	69888	50624
19398656	60832	42320
19922944	84176	65296
20447232	66128	50384
20971520	56848	39232
21495808	56944	38768
22020096	57872	40768
22544384	56832	40480
23068672	51440	36576
23592960	51952	33552
24117248	54272	35344
24641536	49376	30960
25165824	48512	30736
25690112	44352	27456
26214400	51312	32656
26738688	49984	29920
27262976	51680	31184
27787264	46944	26048
28311552	47760	28112
28835840	47808	26336
29360128	49584	28288
29884416	47248	26704
30408704	49760	29552
30932992	47920	26896
31457280	50208	27968
31981568	51568	27568
32505856	52592	27936
33030144	49184	26320
33554432	101312	52736
34603008	99808	53680
35651584	97248	53600
36700160	101920	53008
37748736	96064	52240
38797312	96304	50864
39845888	88880	42896
40894464	86224	42704
41943040	80448	36800
42991616	79264	35744
44040192	80432	35024
45088768	78896	34608
46137344	73264	32432
47185920	69392	32464
48234496	63616	30400
49283072	68352	33552
50331648	66976	31536
51380224	60768	27584
52428800	61088	26288
53477376	54352	21760
54525952	52368	19344
55574528	49840	17904
56623104	45264	17264
57671680	44912	18112
58720256	46272	18352
59768832	50352	23248
60817408	47744	23792
61865984	52688	27104
62914560	61088	29408
63963136	65664	33120
65011712	60544	36528
66060288	61216	36624
67108864	427120	322896
69206016	304704	267984
71303168	413760	333776
73400320	323136	289680
75497472	117280	89856
77594624	95168	70880
79691776	90608	72800
81788928	93232	58048
83886080	67712	57600
85983232	70960	62608
88080384	70368	62128
90177536	304784	237040
92274688	72384	63872
94371840	100784	87792
96468992	309120	262688
98566144	15488	6912
100663296	9872	5440
102760448	7264	4000
104857600	10416	2016
106954752	9728	1232
109051904	4224	1296
111149056	1488	1120
113246208	1360	1120
115343360	1136	976
117440512	2416	1104
119537664	960	736
121634816	944	816
123731968	576	528
125829120	3008	592
127926272	5664	256
130023424	288	256
132120576	928	176
134217728	4288	368
138412032	20000	1200
142606336	11120	1440
146800640	12224	176
150994944	18544	192
155189248	20240	12160
159383552	33200	14288
163577856	1296	736
167772160	192	192
171966464	1728	1728
176160768	3008	3008
180355072	2368	2368
184549376	2560	2560
188743680	1984	1984
192937984	2288	2288
197132288	2512	2480
201326592	2288	2272
205520896	2528	2512
209715200	4176	4144
213909504	3424	3344
218103808	7152	2320
222298112	3920	2384
226492416	10496	4144
230686720	248096	218832
234881024	2384	2336
239075328	2672	2592
243269632	8272	2688
247463936	2224	2112
251658240	4448	720
255852544	1296	48
260046848	7456	1264
264241152	97264	78304
268435456	146832	135312
276824064	0	0
285212672	0	0
293601280	1216	304
301989888	19168	1568
310378496	10944	624
318767104	0	0
327155712	0	0
335544320	0	0
343932928	0	0
352321536	0	0
360710144	0	0
369098752	0	0
377487360	2336	288
385875968	3664	368
394264576	3856	224
402653184	0	0
411041792	0	0
419430400	0	0
427819008	0	0
436207616	0	0
444596224	0	0
452984832	0	0
461373440	0	0
469762048	0	0
478150656	32	0
486539264	16	0
494927872	0	0
503316480	0	0
511705088	0	0
520093696	0	0
528482304	0	0
536870912	0	0
553648128	0	0
570425344	0	0
587202560	0	0
603979776	0	0
620756992	0	0
637534208	0	0
654311424	0	0
671088640	0	0
687865856	0	0
704643072	0	0
721420288	0	0
738197504	0	0
754974720	0	0
771751936	0	0
788529152	0	0
805306368	0	0
822083584	0	0
838860800	0	0
855638016	0	0
872415232	0	0
889192448	0	0
905969664	0	0
922746880	0	0
939524096	0	0
956301312	0	0
973078528	0	0
989855744	0	0
1006632960	0	0
1023410176	0	0
1040187392	0	0
1056964608	0	0
1073741824	0	0
1107296256	0	0
1140850688	0	0
1174405120	0	0
1207959552	0	0
1241513984	0	0
1275068416	0	0
1308622848	0	0
1342177280	0	0
1375731712	0	0
1409286144	0	0
1442840576	0	0
1476395008	0	0
1509949440	0	0
1543503872	0	0
1577058304	0	0
1610612736	0	0
1644167168	0	0
1677721600	0	0
1711276032	0	0
1744830464	0	0
1778384896	0	0
1811939328	0	0
1845493760	0	0
1879048192	0	0
1912602624	0	0
1946157056	0	0
1979711488	0	0
2013265920	0	0
2046820352	0	0
2080374784	0	0
2113929216	0	0
2147483648	0	0
2214592512	0	0
2281701376	0	0
2348810240	0	0
2415919104	0	0
2483027968	0	0
2550136832	0	0
2617245696	0	0
2684354560	0	0
2751463424	0	0
2818572288	0	0
2885681152	0	0
2952790016	0	0
3019898880	0	0
3087007744	0	0
3154116608	0	0
3221225472	0	0
3288334336	0	0
3355443200	0	0
3422552064	0	0
3489660928	0	0
3556769792	0	0
3623878656	0	0
3690987520	0	0
3758096384	0	0
3825205248	0	0
3892314112	0	0
3959422976	0	0
4026531840	0	0
4093640704	0	0
4160749568	0	0
4227858432	0	0
~~~~~~~~~~Reuse Distance Profiler output end~~~~~~~~~~

DRAM Statistics
 CHANNEL 0
 RQ ROW_BUFFER_HIT:     374655  ROW_BUFFER_MISS:   10173989
 DBUS AVG_CONGESTED_CYCLE:    3.94261
 WQ ROW_BUFFER_HIT:     501072  ROW_BUFFER_MISS:    2865459  FULL:          0


CPU 0 Branch Prediction Accuracy: 98.2802% MPKI: 0.434082 Average ROB Occupancy at Mispredict: 313.521
Branch type MPKI
BRANCH_DIRECT_JUMP: 5.8e-05
BRANCH_INDIRECT: 1.66667e-05
BRANCH_CONDITIONAL: 0.433845
BRANCH_DIRECT_CALL: 8.13333e-05
BRANCH_INDIRECT_CALL: 5.33333e-06
BRANCH_RETURN: 7.53333e-05

