
*** ChampSim Multicore Out-of-Order Simulator ***

Warmup Instructions: 500000000
Simulation Instructions: 1500000000
Number of CPUs: 1
Off-chip DRAM Size: 4 GiB Channels: 1 Width: 64-bit Data Rate: 3200 MT/s

VirtualMemory physical capacity: 8588881920 num_ppages: 2096895
VirtualMemory page size: 4096 log2_page_size: 12

CPU 0 runs traces/444.namd-23B.champsimtrace.xz
CPU 0 Bimodal branch predictor
Basic BTB sets: 1024 ways: 8 indirect buffer size: 4096 RAS size: 64
Initializing LRU.
Initializing LRU.
Initializing LRU.
Initializing LRU.
Initializing rdLRU.
Initializing LRU.
Initializing LRU.
Heartbeat CPU 0 instructions: 10000003 cycles: 2702619 heartbeat IPC: 3.70012 cumulative IPC: 3.70012 (Simulation time: 0 hr 0 min 44 sec) 
Heartbeat CPU 0 instructions: 20000004 cycles: 5488653 heartbeat IPC: 3.58933 cumulative IPC: 3.64388 (Simulation time: 0 hr 1 min 43 sec) 
Heartbeat CPU 0 instructions: 30000002 cycles: 8277666 heartbeat IPC: 3.5855 cumulative IPC: 3.62421 (Simulation time: 0 hr 2 min 26 sec) 
Heartbeat CPU 0 instructions: 40000004 cycles: 10993954 heartbeat IPC: 3.6815 cumulative IPC: 3.63836 (Simulation time: 0 hr 3 min 5 sec) 
Heartbeat CPU 0 instructions: 50000003 cycles: 13766692 heartbeat IPC: 3.60654 cumulative IPC: 3.63195 (Simulation time: 0 hr 3 min 45 sec) 
Heartbeat CPU 0 instructions: 60000002 cycles: 16471913 heartbeat IPC: 3.69656 cumulative IPC: 3.64256 (Simulation time: 0 hr 4 min 24 sec) 
Heartbeat CPU 0 instructions: 70000001 cycles: 19169549 heartbeat IPC: 3.70695 cumulative IPC: 3.65162 (Simulation time: 0 hr 5 min 3 sec) 
Heartbeat CPU 0 instructions: 80000003 cycles: 21936853 heartbeat IPC: 3.61363 cumulative IPC: 3.64683 (Simulation time: 0 hr 5 min 42 sec) 
Heartbeat CPU 0 instructions: 90000001 cycles: 24795252 heartbeat IPC: 3.49846 cumulative IPC: 3.62973 (Simulation time: 0 hr 6 min 24 sec) 
Heartbeat CPU 0 instructions: 100000001 cycles: 27489486 heartbeat IPC: 3.71163 cumulative IPC: 3.63775 (Simulation time: 0 hr 7 min 3 sec) 
Heartbeat CPU 0 instructions: 110000000 cycles: 30282633 heartbeat IPC: 3.58019 cumulative IPC: 3.63245 (Simulation time: 0 hr 7 min 43 sec) 
Heartbeat CPU 0 instructions: 120000000 cycles: 33088338 heartbeat IPC: 3.56417 cumulative IPC: 3.62666 (Simulation time: 0 hr 8 min 23 sec) 
Heartbeat CPU 0 instructions: 130000000 cycles: 35800723 heartbeat IPC: 3.68679 cumulative IPC: 3.63121 (Simulation time: 0 hr 9 min 2 sec) 
Heartbeat CPU 0 instructions: 140000000 cycles: 38641104 heartbeat IPC: 3.52065 cumulative IPC: 3.62308 (Simulation time: 0 hr 9 min 43 sec) 
Heartbeat CPU 0 instructions: 150000003 cycles: 41327785 heartbeat IPC: 3.72207 cumulative IPC: 3.62952 (Simulation time: 0 hr 10 min 20 sec) 
Heartbeat CPU 0 instructions: 160000003 cycles: 44169414 heartbeat IPC: 3.51911 cumulative IPC: 3.62242 (Simulation time: 0 hr 11 min 1 sec) 
Heartbeat CPU 0 instructions: 170000000 cycles: 46857086 heartbeat IPC: 3.72069 cumulative IPC: 3.62805 (Simulation time: 0 hr 11 min 38 sec) 
Heartbeat CPU 0 instructions: 180000001 cycles: 49552474 heartbeat IPC: 3.71004 cumulative IPC: 3.63251 (Simulation time: 0 hr 12 min 25 sec) 
Heartbeat CPU 0 instructions: 190000003 cycles: 52370275 heartbeat IPC: 3.54887 cumulative IPC: 3.62801 (Simulation time: 0 hr 13 min 22 sec) 
Heartbeat CPU 0 instructions: 200000003 cycles: 55070643 heartbeat IPC: 3.7032 cumulative IPC: 3.6317 (Simulation time: 0 hr 14 min 12 sec) 
Heartbeat CPU 0 instructions: 210000000 cycles: 57877183 heartbeat IPC: 3.56311 cumulative IPC: 3.62837 (Simulation time: 0 hr 14 min 51 sec) 
Heartbeat CPU 0 instructions: 220000000 cycles: 60602998 heartbeat IPC: 3.66863 cumulative IPC: 3.63018 (Simulation time: 0 hr 15 min 28 sec) 
Heartbeat CPU 0 instructions: 230000003 cycles: 63432686 heartbeat IPC: 3.53396 cumulative IPC: 3.62589 (Simulation time: 0 hr 16 min 7 sec) 
Heartbeat CPU 0 instructions: 240000001 cycles: 66128120 heartbeat IPC: 3.70998 cumulative IPC: 3.62932 (Simulation time: 0 hr 16 min 44 sec) 
Heartbeat CPU 0 instructions: 250000001 cycles: 68948700 heartbeat IPC: 3.54537 cumulative IPC: 3.62588 (Simulation time: 0 hr 17 min 47 sec) 
Heartbeat CPU 0 instructions: 260000002 cycles: 71639263 heartbeat IPC: 3.71669 cumulative IPC: 3.62929 (Simulation time: 0 hr 18 min 51 sec) 
Heartbeat CPU 0 instructions: 270000003 cycles: 74504553 heartbeat IPC: 3.49005 cumulative IPC: 3.62394 (Simulation time: 0 hr 19 min 46 sec) 
Heartbeat CPU 0 instructions: 280000002 cycles: 77202356 heartbeat IPC: 3.70672 cumulative IPC: 3.62683 (Simulation time: 0 hr 20 min 22 sec) 
Heartbeat CPU 0 instructions: 290000003 cycles: 80056592 heartbeat IPC: 3.50356 cumulative IPC: 3.62244 (Simulation time: 0 hr 21 min 1 sec) 
Heartbeat CPU 0 instructions: 300000004 cycles: 82751936 heartbeat IPC: 3.7101 cumulative IPC: 3.62529 (Simulation time: 0 hr 21 min 36 sec) 
Heartbeat CPU 0 instructions: 310000002 cycles: 85608478 heartbeat IPC: 3.50074 cumulative IPC: 3.62114 (Simulation time: 0 hr 22 min 15 sec) 
Heartbeat CPU 0 instructions: 320000002 cycles: 88323363 heartbeat IPC: 3.6834 cumulative IPC: 3.62305 (Simulation time: 0 hr 22 min 51 sec) 
Heartbeat CPU 0 instructions: 330000002 cycles: 91145718 heartbeat IPC: 3.54314 cumulative IPC: 3.62058 (Simulation time: 0 hr 23 min 29 sec) 
Heartbeat CPU 0 instructions: 340000002 cycles: 93866101 heartbeat IPC: 3.67595 cumulative IPC: 3.62218 (Simulation time: 0 hr 24 min 5 sec) 
Heartbeat CPU 0 instructions: 350000000 cycles: 96653195 heartbeat IPC: 3.58797 cumulative IPC: 3.62119 (Simulation time: 0 hr 24 min 42 sec) 
Heartbeat CPU 0 instructions: 360000003 cycles: 99414140 heartbeat IPC: 3.62195 cumulative IPC: 3.62122 (Simulation time: 0 hr 25 min 19 sec) 
Heartbeat CPU 0 instructions: 370000000 cycles: 102287585 heartbeat IPC: 3.48014 cumulative IPC: 3.61725 (Simulation time: 0 hr 25 min 56 sec) 
Heartbeat CPU 0 instructions: 380000003 cycles: 105006758 heartbeat IPC: 3.67759 cumulative IPC: 3.61881 (Simulation time: 0 hr 26 min 33 sec) 
Heartbeat CPU 0 instructions: 390000003 cycles: 107789077 heartbeat IPC: 3.59412 cumulative IPC: 3.61818 (Simulation time: 0 hr 27 min 10 sec) 
Heartbeat CPU 0 instructions: 400000000 cycles: 110558968 heartbeat IPC: 3.61025 cumulative IPC: 3.61798 (Simulation time: 0 hr 27 min 47 sec) 
Heartbeat CPU 0 instructions: 410000002 cycles: 113274773 heartbeat IPC: 3.68215 cumulative IPC: 3.61952 (Simulation time: 0 hr 28 min 37 sec) 
Heartbeat CPU 0 instructions: 420000000 cycles: 115962060 heartbeat IPC: 3.72122 cumulative IPC: 3.62187 (Simulation time: 0 hr 29 min 42 sec) 
Heartbeat CPU 0 instructions: 430000003 cycles: 118652820 heartbeat IPC: 3.71642 cumulative IPC: 3.62402 (Simulation time: 0 hr 30 min 47 sec) 
Heartbeat CPU 0 instructions: 440000000 cycles: 121372723 heartbeat IPC: 3.6766 cumulative IPC: 3.6252 (Simulation time: 0 hr 31 min 53 sec) 
Heartbeat CPU 0 instructions: 450000003 cycles: 124099974 heartbeat IPC: 3.6667 cumulative IPC: 3.62611 (Simulation time: 0 hr 32 min 33 sec) 
Heartbeat CPU 0 instructions: 460000001 cycles: 126805484 heartbeat IPC: 3.69616 cumulative IPC: 3.6276 (Simulation time: 0 hr 33 min 17 sec) 
Heartbeat CPU 0 instructions: 470000004 cycles: 129538084 heartbeat IPC: 3.65952 cumulative IPC: 3.62828 (Simulation time: 0 hr 33 min 52 sec) 
Heartbeat CPU 0 instructions: 480000002 cycles: 132242854 heartbeat IPC: 3.69717 cumulative IPC: 3.62969 (Simulation time: 0 hr 34 min 39 sec) 
Heartbeat CPU 0 instructions: 490000002 cycles: 134940177 heartbeat IPC: 3.70738 cumulative IPC: 3.63124 (Simulation time: 0 hr 35 min 17 sec) 
Heartbeat CPU 0 instructions: 500000001 cycles: 137701605 heartbeat IPC: 3.62131 cumulative IPC: 3.63104 (Simulation time: 0 hr 35 min 54 sec) 

Warmup complete CPU 0 instructions: 500000001 cycles: 137701605 (Simulation time: 0 hr 35 min 54 sec) 

Heartbeat CPU 0 instructions: 510000003 cycles: 142412472 heartbeat IPC: 2.12275 cumulative IPC: 2.12275 (Simulation time: 0 hr 37 min 5 sec) 
Heartbeat CPU 0 instructions: 520000000 cycles: 147057738 heartbeat IPC: 2.15273 cumulative IPC: 2.13764 (Simulation time: 0 hr 38 min 21 sec) 
Heartbeat CPU 0 instructions: 530000003 cycles: 151663026 heartbeat IPC: 2.17142 cumulative IPC: 2.14878 (Simulation time: 0 hr 39 min 6 sec) 
Heartbeat CPU 0 instructions: 540000000 cycles: 156241629 heartbeat IPC: 2.18407 cumulative IPC: 2.15749 (Simulation time: 0 hr 39 min 48 sec) 
Heartbeat CPU 0 instructions: 550000000 cycles: 160884682 heartbeat IPC: 2.15376 cumulative IPC: 2.15675 (Simulation time: 0 hr 40 min 31 sec) 
Heartbeat CPU 0 instructions: 560000002 cycles: 165555644 heartbeat IPC: 2.14089 cumulative IPC: 2.15409 (Simulation time: 0 hr 41 min 14 sec) 
Heartbeat CPU 0 instructions: 570000004 cycles: 170240183 heartbeat IPC: 2.13468 cumulative IPC: 2.15129 (Simulation time: 0 hr 41 min 58 sec) 
Heartbeat CPU 0 instructions: 580000001 cycles: 174832034 heartbeat IPC: 2.17777 cumulative IPC: 2.15457 (Simulation time: 0 hr 42 min 41 sec) 
Heartbeat CPU 0 instructions: 590000003 cycles: 179392286 heartbeat IPC: 2.19286 cumulative IPC: 2.15876 (Simulation time: 0 hr 43 min 23 sec) 
Heartbeat CPU 0 instructions: 600000002 cycles: 184106812 heartbeat IPC: 2.1211 cumulative IPC: 2.15493 (Simulation time: 0 hr 44 min 8 sec) 
Heartbeat CPU 0 instructions: 610000001 cycles: 188795042 heartbeat IPC: 2.133 cumulative IPC: 2.15292 (Simulation time: 0 hr 45 min 24 sec) 
Heartbeat CPU 0 instructions: 620000002 cycles: 193425756 heartbeat IPC: 2.15949 cumulative IPC: 2.15346 (Simulation time: 0 hr 46 min 38 sec) 
Heartbeat CPU 0 instructions: 630000001 cycles: 198078452 heartbeat IPC: 2.14929 cumulative IPC: 2.15314 (Simulation time: 0 hr 47 min 21 sec) 
Heartbeat CPU 0 instructions: 640000004 cycles: 202683406 heartbeat IPC: 2.17158 cumulative IPC: 2.15445 (Simulation time: 0 hr 48 min 3 sec) 
Heartbeat CPU 0 instructions: 650000002 cycles: 207336138 heartbeat IPC: 2.14927 cumulative IPC: 2.1541 (Simulation time: 0 hr 48 min 45 sec) 
Heartbeat CPU 0 instructions: 660000002 cycles: 211931963 heartbeat IPC: 2.17589 cumulative IPC: 2.15545 (Simulation time: 0 hr 49 min 27 sec) 
Heartbeat CPU 0 instructions: 670000000 cycles: 216629682 heartbeat IPC: 2.12869 cumulative IPC: 2.15386 (Simulation time: 0 hr 50 min 9 sec) 
Heartbeat CPU 0 instructions: 680000000 cycles: 221415622 heartbeat IPC: 2.08945 cumulative IPC: 2.15018 (Simulation time: 0 hr 50 min 53 sec) 
Heartbeat CPU 0 instructions: 690000003 cycles: 226154399 heartbeat IPC: 2.11025 cumulative IPC: 2.14804 (Simulation time: 0 hr 51 min 35 sec) 
Heartbeat CPU 0 instructions: 700000004 cycles: 230800026 heartbeat IPC: 2.15256 cumulative IPC: 2.14826 (Simulation time: 0 hr 52 min 17 sec) 
Heartbeat CPU 0 instructions: 710000002 cycles: 235441422 heartbeat IPC: 2.15452 cumulative IPC: 2.14856 (Simulation time: 0 hr 53 min 0 sec) 
Heartbeat CPU 0 instructions: 720000002 cycles: 240027626 heartbeat IPC: 2.18045 cumulative IPC: 2.14999 (Simulation time: 0 hr 53 min 43 sec) 
Heartbeat CPU 0 instructions: 730000000 cycles: 244704688 heartbeat IPC: 2.13809 cumulative IPC: 2.14947 (Simulation time: 0 hr 54 min 26 sec) 
Heartbeat CPU 0 instructions: 740000002 cycles: 249265892 heartbeat IPC: 2.1924 cumulative IPC: 2.15123 (Simulation time: 0 hr 55 min 9 sec) 
Heartbeat CPU 0 instructions: 750000003 cycles: 253854827 heartbeat IPC: 2.17916 cumulative IPC: 2.15233 (Simulation time: 0 hr 55 min 53 sec) 
Heartbeat CPU 0 instructions: 760000002 cycles: 258425312 heartbeat IPC: 2.18795 cumulative IPC: 2.15368 (Simulation time: 0 hr 56 min 35 sec) 
Heartbeat CPU 0 instructions: 770000000 cycles: 262944022 heartbeat IPC: 2.21302 cumulative IPC: 2.15582 (Simulation time: 0 hr 57 min 17 sec) 
Heartbeat CPU 0 instructions: 780000000 cycles: 267569685 heartbeat IPC: 2.16185 cumulative IPC: 2.15603 (Simulation time: 0 hr 57 min 59 sec) 
Heartbeat CPU 0 instructions: 790000004 cycles: 272094241 heartbeat IPC: 2.21016 cumulative IPC: 2.15786 (Simulation time: 0 hr 58 min 41 sec) 
Heartbeat CPU 0 instructions: 800000000 cycles: 276684068 heartbeat IPC: 2.17873 cumulative IPC: 2.15855 (Simulation time: 0 hr 59 min 23 sec) 
Heartbeat CPU 0 instructions: 810000001 cycles: 281424655 heartbeat IPC: 2.10944 cumulative IPC: 2.15693 (Simulation time: 1 hr 0 min 8 sec) 
Heartbeat CPU 0 instructions: 820000000 cycles: 285969970 heartbeat IPC: 2.20007 cumulative IPC: 2.15825 (Simulation time: 1 hr 0 min 50 sec) 
Heartbeat CPU 0 instructions: 830000003 cycles: 290429480 heartbeat IPC: 2.2424 cumulative IPC: 2.16071 (Simulation time: 1 hr 1 min 40 sec) 
Heartbeat CPU 0 instructions: 840000004 cycles: 295134879 heartbeat IPC: 2.12522 cumulative IPC: 2.15965 (Simulation time: 1 hr 2 min 41 sec) 
Heartbeat CPU 0 instructions: 850000001 cycles: 299814297 heartbeat IPC: 2.13702 cumulative IPC: 2.15899 (Simulation time: 1 hr 3 min 25 sec) 
Heartbeat CPU 0 instructions: 860000003 cycles: 304562557 heartbeat IPC: 2.10603 cumulative IPC: 2.15749 (Simulation time: 1 hr 4 min 10 sec) 
Heartbeat CPU 0 instructions: 870000000 cycles: 309238658 heartbeat IPC: 2.13853 cumulative IPC: 2.15697 (Simulation time: 1 hr 5 min 16 sec) 
Heartbeat CPU 0 instructions: 880000003 cycles: 313866150 heartbeat IPC: 2.161 cumulative IPC: 2.15707 (Simulation time: 1 hr 6 min 27 sec) 
Heartbeat CPU 0 instructions: 890000000 cycles: 318499817 heartbeat IPC: 2.15812 cumulative IPC: 2.1571 (Simulation time: 1 hr 7 min 23 sec) 
Heartbeat CPU 0 instructions: 900000001 cycles: 323047982 heartbeat IPC: 2.19869 cumulative IPC: 2.15812 (Simulation time: 1 hr 8 min 14 sec) 
Heartbeat CPU 0 instructions: 910000004 cycles: 327569629 heartbeat IPC: 2.21158 cumulative IPC: 2.15939 (Simulation time: 1 hr 9 min 10 sec) 
Heartbeat CPU 0 instructions: 920000001 cycles: 332156516 heartbeat IPC: 2.18013 cumulative IPC: 2.15988 (Simulation time: 1 hr 9 min 53 sec) 
Heartbeat CPU 0 instructions: 930000004 cycles: 336592788 heartbeat IPC: 2.25415 cumulative IPC: 2.16199 (Simulation time: 1 hr 10 min 35 sec) 
Heartbeat CPU 0 instructions: 940000002 cycles: 341096184 heartbeat IPC: 2.22055 cumulative IPC: 2.16328 (Simulation time: 1 hr 11 min 17 sec) 
Heartbeat CPU 0 instructions: 950000001 cycles: 345683119 heartbeat IPC: 2.1801 cumulative IPC: 2.16365 (Simulation time: 1 hr 12 min 0 sec) 
Heartbeat CPU 0 instructions: 960000002 cycles: 350136837 heartbeat IPC: 2.24532 cumulative IPC: 2.16537 (Simulation time: 1 hr 12 min 42 sec) 
Heartbeat CPU 0 instructions: 970000004 cycles: 354728688 heartbeat IPC: 2.17777 cumulative IPC: 2.16563 (Simulation time: 1 hr 13 min 26 sec) 
Heartbeat CPU 0 instructions: 980000004 cycles: 359282504 heartbeat IPC: 2.19596 cumulative IPC: 2.16625 (Simulation time: 1 hr 14 min 8 sec) 
Heartbeat CPU 0 instructions: 990000003 cycles: 363807588 heartbeat IPC: 2.2099 cumulative IPC: 2.16713 (Simulation time: 1 hr 14 min 51 sec) 
Heartbeat CPU 0 instructions: 1000000001 cycles: 368472774 heartbeat IPC: 2.14354 cumulative IPC: 2.16665 (Simulation time: 1 hr 15 min 52 sec) 
Heartbeat CPU 0 instructions: 1010000001 cycles: 372906573 heartbeat IPC: 2.2554 cumulative IPC: 2.16832 (Simulation time: 1 hr 16 min 40 sec) 
Heartbeat CPU 0 instructions: 1020000004 cycles: 377558938 heartbeat IPC: 2.14945 cumulative IPC: 2.16796 (Simulation time: 1 hr 17 min 32 sec) 
Heartbeat CPU 0 instructions: 1030000004 cycles: 382349977 heartbeat IPC: 2.08723 cumulative IPC: 2.16637 (Simulation time: 1 hr 18 min 16 sec) 
Heartbeat CPU 0 instructions: 1040000004 cycles: 387079647 heartbeat IPC: 2.11431 cumulative IPC: 2.16539 (Simulation time: 1 hr 19 min 0 sec) 
Heartbeat CPU 0 instructions: 1050000002 cycles: 391747420 heartbeat IPC: 2.14235 cumulative IPC: 2.16496 (Simulation time: 1 hr 19 min 42 sec) 
Heartbeat CPU 0 instructions: 1060000003 cycles: 396429744 heartbeat IPC: 2.13569 cumulative IPC: 2.16443 (Simulation time: 1 hr 20 min 25 sec) 
Heartbeat CPU 0 instructions: 1070000002 cycles: 401004041 heartbeat IPC: 2.18613 cumulative IPC: 2.16481 (Simulation time: 1 hr 21 min 8 sec) 
Heartbeat CPU 0 instructions: 1080000004 cycles: 405514402 heartbeat IPC: 2.21712 cumulative IPC: 2.16569 (Simulation time: 1 hr 21 min 49 sec) 
Heartbeat CPU 0 instructions: 1090000004 cycles: 410163268 heartbeat IPC: 2.15106 cumulative IPC: 2.16544 (Simulation time: 1 hr 22 min 32 sec) 
Heartbeat CPU 0 instructions: 1100000001 cycles: 414626757 heartbeat IPC: 2.2404 cumulative IPC: 2.16665 (Simulation time: 1 hr 23 min 14 sec) 
Heartbeat CPU 0 instructions: 1110000002 cycles: 419117083 heartbeat IPC: 2.22701 cumulative IPC: 2.16761 (Simulation time: 1 hr 23 min 56 sec) 
Heartbeat CPU 0 instructions: 1120000003 cycles: 423717175 heartbeat IPC: 2.17387 cumulative IPC: 2.16771 (Simulation time: 1 hr 24 min 39 sec) 
Heartbeat CPU 0 instructions: 1130000004 cycles: 428229914 heartbeat IPC: 2.21595 cumulative IPC: 2.16846 (Simulation time: 1 hr 25 min 20 sec) 
Heartbeat CPU 0 instructions: 1140000000 cycles: 432907127 heartbeat IPC: 2.13802 cumulative IPC: 2.16798 (Simulation time: 1 hr 26 min 3 sec) 
Heartbeat CPU 0 instructions: 1150000000 cycles: 437302656 heartbeat IPC: 2.27504 cumulative IPC: 2.16955 (Simulation time: 1 hr 26 min 44 sec) 
Heartbeat CPU 0 instructions: 1160000004 cycles: 441846606 heartbeat IPC: 2.20073 cumulative IPC: 2.17002 (Simulation time: 1 hr 27 min 29 sec) 
Heartbeat CPU 0 instructions: 1170000004 cycles: 446542133 heartbeat IPC: 2.12969 cumulative IPC: 2.1694 (Simulation time: 1 hr 28 min 33 sec) 
Heartbeat CPU 0 instructions: 1180000001 cycles: 451035619 heartbeat IPC: 2.22544 cumulative IPC: 2.17021 (Simulation time: 1 hr 29 min 36 sec) 
Heartbeat CPU 0 instructions: 1190000000 cycles: 455522143 heartbeat IPC: 2.2289 cumulative IPC: 2.17104 (Simulation time: 1 hr 30 min 18 sec) 
Heartbeat CPU 0 instructions: 1200000001 cycles: 460183799 heartbeat IPC: 2.14516 cumulative IPC: 2.17066 (Simulation time: 1 hr 31 min 1 sec) 
Heartbeat CPU 0 instructions: 1210000002 cycles: 464879339 heartbeat IPC: 2.12968 cumulative IPC: 2.17007 (Simulation time: 1 hr 31 min 44 sec) 
Heartbeat CPU 0 instructions: 1220000000 cycles: 469662348 heartbeat IPC: 2.09073 cumulative IPC: 2.16893 (Simulation time: 1 hr 32 min 29 sec) 
Heartbeat CPU 0 instructions: 1230000002 cycles: 474342752 heartbeat IPC: 2.13657 cumulative IPC: 2.16848 (Simulation time: 1 hr 33 min 12 sec) 
Heartbeat CPU 0 instructions: 1240000002 cycles: 479076287 heartbeat IPC: 2.11259 cumulative IPC: 2.16771 (Simulation time: 1 hr 33 min 56 sec) 
Heartbeat CPU 0 instructions: 1250000001 cycles: 483737745 heartbeat IPC: 2.14525 cumulative IPC: 2.1674 (Simulation time: 1 hr 34 min 39 sec) 
Heartbeat CPU 0 instructions: 1260000004 cycles: 488302290 heartbeat IPC: 2.1908 cumulative IPC: 2.16771 (Simulation time: 1 hr 35 min 23 sec) 
Heartbeat CPU 0 instructions: 1270000003 cycles: 492981023 heartbeat IPC: 2.13733 cumulative IPC: 2.16731 (Simulation time: 1 hr 36 min 6 sec) 
Heartbeat CPU 0 instructions: 1280000000 cycles: 497574055 heartbeat IPC: 2.17721 cumulative IPC: 2.16743 (Simulation time: 1 hr 36 min 49 sec) 
Heartbeat CPU 0 instructions: 1290000001 cycles: 502089629 heartbeat IPC: 2.21456 cumulative IPC: 2.16802 (Simulation time: 1 hr 37 min 32 sec) 
Heartbeat CPU 0 instructions: 1300000000 cycles: 506779804 heartbeat IPC: 2.13212 cumulative IPC: 2.16756 (Simulation time: 1 hr 38 min 16 sec) 
Heartbeat CPU 0 instructions: 1310000003 cycles: 511348674 heartbeat IPC: 2.18873 cumulative IPC: 2.16782 (Simulation time: 1 hr 38 min 59 sec) 
Heartbeat CPU 0 instructions: 1320000000 cycles: 515884698 heartbeat IPC: 2.20457 cumulative IPC: 2.16826 (Simulation time: 1 hr 39 min 41 sec) 
Heartbeat CPU 0 instructions: 1330000004 cycles: 520480287 heartbeat IPC: 2.176 cumulative IPC: 2.16835 (Simulation time: 1 hr 40 min 24 sec) 
Heartbeat CPU 0 instructions: 1340000002 cycles: 525207785 heartbeat IPC: 2.11528 cumulative IPC: 2.16771 (Simulation time: 1 hr 41 min 8 sec) 
Heartbeat CPU 0 instructions: 1350000001 cycles: 529776670 heartbeat IPC: 2.18872 cumulative IPC: 2.16795 (Simulation time: 1 hr 41 min 53 sec) 
Heartbeat CPU 0 instructions: 1360000003 cycles: 534290288 heartbeat IPC: 2.21552 cumulative IPC: 2.16849 (Simulation time: 1 hr 42 min 39 sec) 
Heartbeat CPU 0 instructions: 1370000003 cycles: 538995698 heartbeat IPC: 2.12521 cumulative IPC: 2.16799 (Simulation time: 1 hr 43 min 22 sec) 
Heartbeat CPU 0 instructions: 1380000003 cycles: 543692067 heartbeat IPC: 2.1293 cumulative IPC: 2.16754 (Simulation time: 1 hr 44 min 8 sec) 
Heartbeat CPU 0 instructions: 1390000004 cycles: 548466679 heartbeat IPC: 2.09441 cumulative IPC: 2.16669 (Simulation time: 1 hr 45 min 19 sec) 
Heartbeat CPU 0 instructions: 1400000004 cycles: 553210462 heartbeat IPC: 2.10802 cumulative IPC: 2.16602 (Simulation time: 1 hr 46 min 20 sec) 
Heartbeat CPU 0 instructions: 1410000001 cycles: 557933375 heartbeat IPC: 2.11734 cumulative IPC: 2.16547 (Simulation time: 1 hr 47 min 4 sec) 
Heartbeat CPU 0 instructions: 1420000001 cycles: 562629019 heartbeat IPC: 2.12963 cumulative IPC: 2.16508 (Simulation time: 1 hr 47 min 47 sec) 
Heartbeat CPU 0 instructions: 1430000000 cycles: 567345241 heartbeat IPC: 2.12034 cumulative IPC: 2.16458 (Simulation time: 1 hr 48 min 31 sec) 
Heartbeat CPU 0 instructions: 1440000002 cycles: 572077328 heartbeat IPC: 2.11323 cumulative IPC: 2.16403 (Simulation time: 1 hr 49 min 14 sec) 
Heartbeat CPU 0 instructions: 1450000002 cycles: 598377931 heartbeat IPC: 0.380219 cumulative IPC: 2.06219 (Simulation time: 1 hr 52 min 30 sec) 
Heartbeat CPU 0 instructions: 1460000000 cycles: 607272165 heartbeat IPC: 1.12432 cumulative IPC: 2.04442 (Simulation time: 1 hr 53 min 59 sec) 
Heartbeat CPU 0 instructions: 1470000002 cycles: 612471023 heartbeat IPC: 1.9235 cumulative IPC: 2.0431 (Simulation time: 1 hr 54 min 46 sec) 
Heartbeat CPU 0 instructions: 1480000004 cycles: 617785205 heartbeat IPC: 1.88176 cumulative IPC: 2.04131 (Simulation time: 1 hr 55 min 33 sec) 
Heartbeat CPU 0 instructions: 1490000000 cycles: 622956975 heartbeat IPC: 1.93357 cumulative IPC: 2.04016 (Simulation time: 1 hr 56 min 19 sec) 
Heartbeat CPU 0 instructions: 1500000002 cycles: 628266985 heartbeat IPC: 1.88324 cumulative IPC: 2.03846 (Simulation time: 1 hr 57 min 6 sec) 
Heartbeat CPU 0 instructions: 1510000001 cycles: 633569975 heartbeat IPC: 1.88573 cumulative IPC: 2.03683 (Simulation time: 1 hr 57 min 53 sec) 
Heartbeat CPU 0 instructions: 1520000002 cycles: 638768259 heartbeat IPC: 1.92371 cumulative IPC: 2.03566 (Simulation time: 1 hr 58 min 40 sec) 
Heartbeat CPU 0 instructions: 1530000000 cycles: 644037300 heartbeat IPC: 1.89788 cumulative IPC: 2.03422 (Simulation time: 1 hr 59 min 37 sec) 
Heartbeat CPU 0 instructions: 1540000004 cycles: 649250984 heartbeat IPC: 1.91803 cumulative IPC: 2.03304 (Simulation time: 2 hr 0 min 24 sec) 
Heartbeat CPU 0 instructions: 1550000002 cycles: 654556101 heartbeat IPC: 1.88497 cumulative IPC: 2.03152 (Simulation time: 2 hr 1 min 11 sec) 
Heartbeat CPU 0 instructions: 1560000000 cycles: 659785842 heartbeat IPC: 1.91214 cumulative IPC: 2.03032 (Simulation time: 2 hr 1 min 58 sec) 
Heartbeat CPU 0 instructions: 1570000001 cycles: 665065018 heartbeat IPC: 1.89424 cumulative IPC: 2.02896 (Simulation time: 2 hr 2 min 45 sec) 
Heartbeat CPU 0 instructions: 1580000004 cycles: 670268915 heartbeat IPC: 1.92164 cumulative IPC: 2.02791 (Simulation time: 2 hr 3 min 32 sec) 
Heartbeat CPU 0 instructions: 1590000004 cycles: 675441444 heartbeat IPC: 1.93329 cumulative IPC: 2.027 (Simulation time: 2 hr 4 min 18 sec) 
Heartbeat CPU 0 instructions: 1600000003 cycles: 680801294 heartbeat IPC: 1.86572 cumulative IPC: 2.02541 (Simulation time: 2 hr 5 min 4 sec) 
Heartbeat CPU 0 instructions: 1610000001 cycles: 686051579 heartbeat IPC: 1.90466 cumulative IPC: 2.02425 (Simulation time: 2 hr 5 min 51 sec) 
Heartbeat CPU 0 instructions: 1620000003 cycles: 691239741 heartbeat IPC: 1.92747 cumulative IPC: 2.02335 (Simulation time: 2 hr 6 min 37 sec) 
Heartbeat CPU 0 instructions: 1630000001 cycles: 696499431 heartbeat IPC: 1.90125 cumulative IPC: 2.0222 (Simulation time: 2 hr 7 min 25 sec) 
Heartbeat CPU 0 instructions: 1640000004 cycles: 701698567 heartbeat IPC: 1.9234 cumulative IPC: 2.02129 (Simulation time: 2 hr 8 min 12 sec) 
Heartbeat CPU 0 instructions: 1650000004 cycles: 706856718 heartbeat IPC: 1.93868 cumulative IPC: 2.02054 (Simulation time: 2 hr 8 min 58 sec) 
Heartbeat CPU 0 instructions: 1660000003 cycles: 712185593 heartbeat IPC: 1.87657 cumulative IPC: 2.0192 (Simulation time: 2 hr 9 min 45 sec) 
Heartbeat CPU 0 instructions: 1670000002 cycles: 717349039 heartbeat IPC: 1.93669 cumulative IPC: 2.01847 (Simulation time: 2 hr 10 min 32 sec) 
Heartbeat CPU 0 instructions: 1680000003 cycles: 722688303 heartbeat IPC: 1.87292 cumulative IPC: 2.01714 (Simulation time: 2 hr 11 min 18 sec) 
Heartbeat CPU 0 instructions: 1690000000 cycles: 727830493 heartbeat IPC: 1.9447 cumulative IPC: 2.01651 (Simulation time: 2 hr 12 min 5 sec) 
Heartbeat CPU 0 instructions: 1700000004 cycles: 733162341 heartbeat IPC: 1.87552 cumulative IPC: 2.01525 (Simulation time: 2 hr 12 min 53 sec) 
Heartbeat CPU 0 instructions: 1710000003 cycles: 738421984 heartbeat IPC: 1.90127 cumulative IPC: 2.01425 (Simulation time: 2 hr 13 min 48 sec) 
Heartbeat CPU 0 instructions: 1720000002 cycles: 743579822 heartbeat IPC: 1.9388 cumulative IPC: 2.01361 (Simulation time: 2 hr 14 min 44 sec) 
Heartbeat CPU 0 instructions: 1730000001 cycles: 748823238 heartbeat IPC: 1.90715 cumulative IPC: 2.01269 (Simulation time: 2 hr 15 min 40 sec) 
Heartbeat CPU 0 instructions: 1740000000 cycles: 753934793 heartbeat IPC: 1.95635 cumulative IPC: 2.01223 (Simulation time: 2 hr 16 min 26 sec) 
Heartbeat CPU 0 instructions: 1750000004 cycles: 759174303 heartbeat IPC: 1.90858 cumulative IPC: 2.01135 (Simulation time: 2 hr 17 min 13 sec) 
Heartbeat CPU 0 instructions: 1760000003 cycles: 764300494 heartbeat IPC: 1.95077 cumulative IPC: 2.01086 (Simulation time: 2 hr 17 min 59 sec) 
Heartbeat CPU 0 instructions: 1770000000 cycles: 769432380 heartbeat IPC: 1.9486 cumulative IPC: 2.01035 (Simulation time: 2 hr 18 min 45 sec) 
Heartbeat CPU 0 instructions: 1780000002 cycles: 774695946 heartbeat IPC: 1.89985 cumulative IPC: 2.00944 (Simulation time: 2 hr 19 min 32 sec) 
Heartbeat CPU 0 instructions: 1790000000 cycles: 779856879 heartbeat IPC: 1.93763 cumulative IPC: 2.00886 (Simulation time: 2 hr 20 min 18 sec) 
Heartbeat CPU 0 instructions: 1800000004 cycles: 785162072 heartbeat IPC: 1.88495 cumulative IPC: 2.00784 (Simulation time: 2 hr 21 min 4 sec) 
Heartbeat CPU 0 instructions: 1810000003 cycles: 790295148 heartbeat IPC: 1.94815 cumulative IPC: 2.00738 (Simulation time: 2 hr 21 min 51 sec) 
Heartbeat CPU 0 instructions: 1820000000 cycles: 795614454 heartbeat IPC: 1.87994 cumulative IPC: 2.00634 (Simulation time: 2 hr 22 min 37 sec) 
Heartbeat CPU 0 instructions: 1830000000 cycles: 800756547 heartbeat IPC: 1.94473 cumulative IPC: 2.00587 (Simulation time: 2 hr 23 min 23 sec) 
Heartbeat CPU 0 instructions: 1840000001 cycles: 806017929 heartbeat IPC: 1.90064 cumulative IPC: 2.00504 (Simulation time: 2 hr 24 min 10 sec) 
Heartbeat CPU 0 instructions: 1850000004 cycles: 811159999 heartbeat IPC: 1.94474 cumulative IPC: 2.00458 (Simulation time: 2 hr 24 min 57 sec) 
Heartbeat CPU 0 instructions: 1860000001 cycles: 816397494 heartbeat IPC: 1.90931 cumulative IPC: 2.00384 (Simulation time: 2 hr 25 min 43 sec) 
Heartbeat CPU 0 instructions: 1870000004 cycles: 821565565 heartbeat IPC: 1.93496 cumulative IPC: 2.00332 (Simulation time: 2 hr 26 min 30 sec) 
Heartbeat CPU 0 instructions: 1880000001 cycles: 826792374 heartbeat IPC: 1.91321 cumulative IPC: 2.00264 (Simulation time: 2 hr 27 min 17 sec) 
Heartbeat CPU 0 instructions: 1890000003 cycles: 831931966 heartbeat IPC: 1.94568 cumulative IPC: 2.00222 (Simulation time: 2 hr 28 min 4 sec) 
Heartbeat CPU 0 instructions: 1900000003 cycles: 837196444 heartbeat IPC: 1.89952 cumulative IPC: 2.00144 (Simulation time: 2 hr 28 min 50 sec) 
Heartbeat CPU 0 instructions: 1910000001 cycles: 842386504 heartbeat IPC: 1.92676 cumulative IPC: 2.00089 (Simulation time: 2 hr 29 min 37 sec) 
Heartbeat CPU 0 instructions: 1920000000 cycles: 847697821 heartbeat IPC: 1.88277 cumulative IPC: 2.00001 (Simulation time: 2 hr 30 min 26 sec) 
Heartbeat CPU 0 instructions: 1930000002 cycles: 852861063 heartbeat IPC: 1.93677 cumulative IPC: 1.99955 (Simulation time: 2 hr 31 min 19 sec) 
Heartbeat CPU 0 instructions: 1940000003 cycles: 858197582 heartbeat IPC: 1.87388 cumulative IPC: 1.99862 (Simulation time: 2 hr 32 min 6 sec) 
Heartbeat CPU 0 instructions: 1950000003 cycles: 863352452 heartbeat IPC: 1.93991 cumulative IPC: 1.99821 (Simulation time: 2 hr 32 min 53 sec) 
Heartbeat CPU 0 instructions: 1960000000 cycles: 868678962 heartbeat IPC: 1.8774 cumulative IPC: 1.99733 (Simulation time: 2 hr 33 min 39 sec) 
Heartbeat CPU 0 instructions: 1970000001 cycles: 873831245 heartbeat IPC: 1.94089 cumulative IPC: 1.99693 (Simulation time: 2 hr 34 min 26 sec) 
Heartbeat CPU 0 instructions: 1980000002 cycles: 879105655 heartbeat IPC: 1.89595 cumulative IPC: 1.99621 (Simulation time: 2 hr 35 min 12 sec) 
Heartbeat CPU 0 instructions: 1990000000 cycles: 884270852 heartbeat IPC: 1.93603 cumulative IPC: 1.9958 (Simulation time: 2 hr 35 min 59 sec) 
*** Reached end of trace: traces/444.namd-23B.champsimtrace.xz
Heartbeat CPU 0 instructions: 2000000002 cycles: 889527206 heartbeat IPC: 1.90246 cumulative IPC: 1.99514 (Simulation time: 2 hr 36 min 45 sec) 
Finished CPU 0 instructions: 1500000001 cycles: 751825601 cumulative IPC: 1.99514 (Simulation time: 2 hr 36 min 45 sec) 

ChampSim completed all CPUs

Region of Interest Statistics

CPU 0 cumulative IPC: 1.99514 instructions: 1500000001 cycles: 751825601
cpu0_DTLB TOTAL     ACCESS:  285693489  HIT:  285596105  MISS:      97384
cpu0_DTLB LOAD      ACCESS:  205497144  HIT:  205411799  MISS:      85345
cpu0_DTLB RFO       ACCESS:   80196345  HIT:   80184306  MISS:      12039
cpu0_DTLB PREFETCH  ACCESS:          0  HIT:          0  MISS:          0
cpu0_DTLB WRITEBACK ACCESS:          0  HIT:          0  MISS:          0
cpu0_DTLB TRANSLATION ACCESS:          0  HIT:          0  MISS:          0
cpu0_DTLB PREFETCH  REQUESTED:          0  ISSUED:          0  USEFUL:          0  USELESS:          0
cpu0_DTLB AVERAGE MISS LATENCY: 22.0003 cycles
cpu0_ITLB TOTAL     ACCESS:   44308360  HIT:   44308335  MISS:         25
cpu0_ITLB LOAD      ACCESS:   44308360  HIT:   44308335  MISS:         25
cpu0_ITLB RFO       ACCESS:          0  HIT:          0  MISS:          0
cpu0_ITLB PREFETCH  ACCESS:          0  HIT:          0  MISS:          0
cpu0_ITLB WRITEBACK ACCESS:          0  HIT:          0  MISS:          0
cpu0_ITLB TRANSLATION ACCESS:          0  HIT:          0  MISS:          0
cpu0_ITLB PREFETCH  REQUESTED:          0  ISSUED:          0  USEFUL:          0  USELESS:          0
cpu0_ITLB AVERAGE MISS LATENCY: 245.32 cycles
cpu0_L1I TOTAL     ACCESS:   29240640  HIT:   29240294  MISS:        346
cpu0_L1I LOAD      ACCESS:   29240640  HIT:   29240294  MISS:        346
cpu0_L1I RFO       ACCESS:          0  HIT:          0  MISS:          0
cpu0_L1I PREFETCH  ACCESS:          0  HIT:          0  MISS:          0
cpu0_L1I WRITEBACK ACCESS:          0  HIT:          0  MISS:          0
cpu0_L1I TRANSLATION ACCESS:          0  HIT:          0  MISS:          0
cpu0_L1I PREFETCH  REQUESTED:          0  ISSUED:          0  USEFUL:          0  USELESS:          0
cpu0_L1I AVERAGE MISS LATENCY: 234.91 cycles
cpu0_STLB TOTAL     ACCESS:      97409  HIT:      91505  MISS:       5904
cpu0_STLB LOAD      ACCESS:      85370  HIT:      81991  MISS:       3379
cpu0_STLB RFO       ACCESS:      12039  HIT:       9514  MISS:       2525
cpu0_STLB PREFETCH  ACCESS:          0  HIT:          0  MISS:          0
cpu0_STLB WRITEBACK ACCESS:          0  HIT:          0  MISS:          0
cpu0_STLB TRANSLATION ACCESS:          0  HIT:          0  MISS:          0
cpu0_STLB PREFETCH  REQUESTED:          0  ISSUED:          0  USEFUL:          0  USELESS:          0
cpu0_STLB AVERAGE MISS LATENCY: 215.426 cycles
cpu0_L1D TOTAL     ACCESS:  337079671  HIT:  331664131  MISS:    5415540
cpu0_L1D LOAD      ACCESS:  220474708  HIT:  215452783  MISS:    5021925
cpu0_L1D RFO       ACCESS:  116599950  HIT:  116206872  MISS:     393078
cpu0_L1D PREFETCH  ACCESS:          0  HIT:          0  MISS:          0
cpu0_L1D WRITEBACK ACCESS:          0  HIT:          0  MISS:          0
cpu0_L1D TRANSLATION ACCESS:       5013  HIT:       4476  MISS:        537
cpu0_L1D PREFETCH  REQUESTED:          0  ISSUED:          0  USEFUL:          0  USELESS:          0
cpu0_L1D AVERAGE MISS LATENCY: 79.3254 cycles
cpu0_L2C TOTAL     ACCESS:    6994659  HIT:    6562472  MISS:     432187
cpu0_L2C LOAD      ACCESS:    5022053  HIT:    4743985  MISS:     278068
cpu0_L2C RFO       ACCESS:     392941  HIT:     238876  MISS:     154065
cpu0_L2C PREFETCH  ACCESS:          0  HIT:          0  MISS:          0
cpu0_L2C WRITEBACK ACCESS:    1579128  HIT:    1579116  MISS:         12
cpu0_L2C TRANSLATION ACCESS:        537  HIT:        495  MISS:         42
cpu0_L2C PREFETCH  REQUESTED:          0  ISSUED:          0  USEFUL:          0  USELESS:          0
cpu0_L2C AVERAGE MISS LATENCY: 855.309 cycles
LLC TOTAL     ACCESS:     622623  HIT:     231033  MISS:     391590
LLC LOAD      ACCESS:     278068  HIT:      35467  MISS:     242601
LLC RFO       ACCESS:     154056  HIT:       5175  MISS:     148881
LLC PREFETCH  ACCESS:          0  HIT:          0  MISS:          0
LLC WRITEBACK ACCESS:     190457  HIT:     190366  MISS:         91
LLC TRANSLATION ACCESS:         42  HIT:         25  MISS:         17
LLC PREFETCH  REQUESTED:          0  ISSUED:          0  USEFUL:          0  USELESS:          0
LLC AVERAGE MISS LATENCY: 920.805 cycles
~~~~~~~~~~Reuse Distance Profiler output~~~~~~~~~~
0	42670128	13762000
1	22786416	16610336
2	54945184	25032848
3	34688288	18993760
4	32836400	18115248
5	27022240	18839856
6	19680576	16735888
7	17973824	15539824
8	11947984	9852432
9	9519600	8037824
10	7153856	5966848
11	8492256	6188928
12	6033600	3905584
13	3744224	3062544
14	6093200	5564384
15	4630160	4223424
16	3885648	3375888
17	5211376	4677952
18	5495008	5278336
19	4839712	4453792
20	5323648	3701280
21	2054032	1250496
22	748144	462064
23	659088	267696
24	607792	426736
25	2066944	1968480
26	2724048	1775056
27	2740624	1342624
28	1365344	742576
29	1371728	1136016
30	1457888	1111056
31	759168	531936
32	1182352	983728
33	1231264	1047344
34	2455856	2152080
35	2060368	1834240
36	2073472	1942256
37	1906656	1715104
38	2478240	902320
39	2155040	451856
40	2253024	1052288
41	1913536	1130336
42	1330336	946816
43	2351568	1618592
44	1996320	1185296
45	2138096	1336864
46	1658816	951088
47	1975744	622304
48	2274112	392928
49	1836112	299568
50	2040592	624832
51	1906688	924176
52	1811504	1110768
53	1276992	926224
54	1712720	1354960
55	4672368	4098240
56	3516576	2664672
57	1856208	1394912
58	1129888	810144
59	1283824	1001392
60	1146864	851984
61	828160	680464
62	452224	398800
63	106560	45072
64	189376	114400
66	182992	120336
68	264752	229520
70	247232	204768
72	120848	44880
74	77744	38544
76	48096	27488
78	49472	20048
80	28816	19248
82	48832	14944
84	81248	12736
86	31072	18704
88	46128	23504
90	51792	18576
92	67680	36752
94	70976	56688
96	182512	167168
98	119360	105424
100	209712	205664
102	136064	131728
104	71392	67664
106	52992	50032
108	84304	81616
110	261440	258944
112	392592	389568
114	137664	135088
116	39296	36928
118	153568	151536
120	51728	49776
122	147040	145344
124	23328	21712
126	13664	12112
128	28000	25344
132	22560	19808
136	43952	41216
140	49632	47104
144	30912	27952
148	17968	15568
152	23760	21680
156	61888	60016
160	32656	31104
164	154560	152912
168	346736	344800
172	89184	87584
176	71488	69904
180	241568	239984
184	38848	37552
188	15920	14656
192	15792	14800
196	15440	14544
200	16352	15344
204	17104	16304
208	33104	32240
212	29408	28608
216	25824	24960
220	52352	51632
224	67888	66944
228	24880	24032
232	17248	16464
236	24896	23984
240	44672	43984
244	31440	30896
248	20128	19424
252	13728	13120
256	26000	24496
264	28592	27440
272	76560	74992
280	88800	87424
288	28032	26656
296	39488	38256
304	32544	31200
312	50176	49296
320	33248	32272
328	47392	46512
336	67104	66096
344	45360	44288
352	49856	48768
360	32512	31760
368	29824	29040
376	36896	36000
384	66816	65984
392	64304	63616
400	37456	36768
408	31136	30320
416	54592	53792
424	43632	42880
432	32304	31280
440	47712	47024
448	69728	69008
456	60032	59456
464	35344	34416
472	36080	35344
480	41808	41392
488	48352	47600
496	53552	52736
504	57984	57424
512	93808	92624
528	91264	89680
544	92688	91344
560	119248	117760
576	79968	78560
592	107248	105888
608	110080	108752
624	107072	105488
640	92656	91472
656	126464	125168
672	215488	214144
688	148176	146896
704	230112	228960
720	286320	284992
736	254112	252816
752	232288	231040
768	239920	238704
784	255856	254384
800	248320	247024
816	399888	398736
832	482544	481056
848	553600	551968
864	311504	310096
880	260048	258640
896	306752	305072
912	237248	235744
928	209712	208240
944	278192	276672
960	196848	195216
976	231152	229504
992	226880	225296
1008	186160	184400
1024	278160	274704
1056	280832	277808
1088	239856	236288
1120	267200	264224
1152	258832	255232
1184	403616	400352
1216	561440	558000
1248	738160	734656
1280	1193920	1189920
1312	1009712	1005472
1344	696496	692544
1376	435968	432240
1408	360592	356720
1440	300288	296672
1472	253568	250064
1504	338256	334544
1536	359888	356272
1568	327120	323232
1600	264160	260400
1632	205424	202320
1664	189120	185568
1696	178800	175408
1728	186880	183952
1760	161088	157872
1792	175792	172432
1824	156464	152912
1856	155408	151744
1888	151808	148272
1920	150496	147472
1952	153264	150224
1984	141408	138048
2016	156016	153040
2048	282672	276256
2112	272304	266064
2176	268784	262144
2240	262784	257088
2304	265856	259584
2368	265392	259520
2432	259328	254096
2496	247488	242016
2560	243056	236656
2624	242592	237296
2688	241472	235696
2752	238032	232768
2816	229936	224336
2880	229920	224720
2944	226080	220544
3008	220512	215504
3072	217360	211904
3136	221424	216112
3200	214368	209136
3264	211936	207120
3328	210576	204704
3392	213392	208368
3456	205200	200192
3520	203728	198816
3584	201120	195952
3648	200960	195920
3712	194448	189520
3776	195136	189824
3840	193056	188288
3904	194928	190256
3968	194896	190000
4032	184816	180160
4096	371744	362240
4224	363952	355264
4352	351808	342736
4480	350208	341440
4608	347584	338688
4736	334096	326112
4864	326160	317408
4992	327760	319120
5120	320576	312688
5248	318224	310240
5376	312896	305504
5504	309008	301792
5632	307200	299296
5760	296816	289360
5888	284096	276320
6016	283696	276016
6144	282880	275840
6272	275920	269008
6400	278544	271440
6528	273456	266384
6656	270912	263936
6784	270224	262864
6912	266496	259728
7040	259952	253936
7168	259104	252544
7296	252752	246864
7424	244832	238432
7552	243568	237376
7680	242544	236112
7808	244208	238352
7936	236512	230736
8064	230448	224496
8192	456528	445600
8448	432896	422048
8704	429456	419232
8960	414608	403952
9216	401040	391712
9472	379008	369312
9728	370032	360576
9984	360192	351200
10240	355744	347312
10496	337168	329216
10752	321408	314096
11008	315152	307440
11264	307440	300832
11520	294384	286976
11776	284752	277936
12032	276000	270000
12288	261712	255520
12544	249728	244000
12800	234816	229008
13056	234400	229168
13312	220400	215248
13568	214624	209824
13824	205856	201664
14080	198208	193952
14336	189424	185328
14592	180480	176560
14848	173680	169536
15104	162656	158288
15360	151808	147728
15616	156144	152032
15872	142080	138608
16128	140368	136640
16384	252832	246784
16896	238976	234352
17408	217840	213248
17920	199088	194448
18432	184720	180864
18944	168080	164816
19456	154016	151008
19968	135472	132928
20480	123904	121072
20992	117360	115376
21504	112880	110480
22016	104688	102432
22528	103504	101200
23040	95328	93248
23552	93328	91520
24064	90464	88496
24576	83792	82048
25088	80768	78976
25600	80608	78528
26112	76160	74544
26624	69808	67904
27136	72000	70432
27648	70736	69104
28160	67360	65632
28672	66544	64960
29184	64352	62944
29696	60736	59312
30208	56928	55616
30720	60112	58320
31232	58384	56896
31744	52128	50720
32256	51296	49856
32768	100640	97808
33792	87520	84672
34816	88752	86048
35840	84576	82400
36864	76272	73584
37888	76048	73760
38912	65264	63200
39936	61824	59456
40960	59408	57568
41984	56464	54464
43008	53216	51648
44032	50160	48368
45056	46784	45184
46080	45312	43952
47104	42320	40800
48128	39552	38032
49152	39248	38064
50176	33648	32656
51200	33200	31936
52224	32208	31376
53248	28144	27088
54272	30032	28784
55296	28144	27184
56320	27120	26016
57344	25088	24304
58368	24304	23440
59392	21920	21312
60416	20720	19984
61440	21168	20480
62464	19840	19088
63488	18160	17648
64512	16560	16096
65536	34528	33472
67584	30544	29696
69632	30656	29824
71680	28640	27744
73728	25824	24640
75776	26688	25488
77824	25264	24112
79872	24256	22848
81920	21936	20992
83968	21600	20864
86016	19936	19264
88064	19776	18816
90112	19152	17616
92160	19760	16464
94208	17968	15856
96256	17648	16256
98304	15296	14672
100352	14576	14240
102400	13856	13536
104448	13664	13344
106496	12336	11648
108544	12608	11744
110592	12448	11856
112640	11616	11120
114688	11344	10832
116736	11360	11088
118784	9360	9104
120832	9904	9632
122880	9696	9424
124928	9024	8656
126976	9040	8848
129024	9200	8848
131072	17280	16816
135168	15280	14816
139264	14624	14176
143360	14416	13792
147456	12416	11920
151552	12544	12192
155648	12208	11840
159744	11760	11376
163840	10864	10512
167936	10128	9808
172032	9888	9520
176128	8960	8704
180224	9024	8656
184320	8944	8624
188416	7808	7520
192512	7760	7584
196608	7152	7008
200704	7456	7248
204800	6160	5888
208896	6864	6624
212992	6400	6288
217088	6080	5872
221184	6512	6352
225280	5840	5728
229376	5984	5776
233472	5472	5328
237568	5088	4912
241664	4880	4768
245760	4864	4688
249856	4032	3920
253952	3536	3472
258048	4800	4640
262144	9888	9488
270336	8688	8576
278528	7776	7152
286720	7264	7104
294912	7360	7120
303104	6800	6512
311296	6752	6560
319488	6128	5808
327680	6592	6352
335872	5664	5552
344064	6512	6464
352256	5584	5488
360448	5472	5344
368640	5296	5120
376832	4992	4800
385024	4416	4240
393216	4912	4816
401408	4208	4128
409600	3760	3680
417792	4016	3952
425984	3712	3664
434176	3760	3696
442368	3632	3536
450560	3216	3120
458752	2960	2928
466944	3200	3088
475136	3056	2992
483328	3056	3024
491520	3056	3008
499712	3264	3152
507904	2544	2464
516096	3456	3408
524288	5488	5328
540672	5232	5072
557056	6544	6464
573440	5648	5520
589824	6224	5984
606208	5056	4928
622592	5072	4976
638976	5632	5568
655360	6160	6064
671744	5376	5264
688128	4720	4672
704512	4368	4320
720896	4432	4272
737280	4032	3904
753664	3424	3296
770048	3488	3424
786432	4032	4000
802816	4944	4880
819200	4176	4128
835584	4592	4496
851968	3904	3760
868352	3984	3952
884736	3392	3344
901120	3568	3456
917504	2624	2592
933888	2112	2032
950272	2512	2432
966656	2176	2160
983040	2288	2256
999424	1984	1904
1015808	1664	1632
1032192	2368	2320
1048576	3648	3600
1081344	3440	3296
1114112	3328	3168
1146880	3584	3536
1179648	4464	4400
1212416	4304	4192
1245184	4400	4384
1277952	3712	3648
1310720	5424	5408
1343488	6000	5952
1376256	5824	5792
1409024	5520	5440
1441792	4480	4448
1474560	4608	4608
1507328	5104	5056
1540096	3440	3376
1572864	3584	3552
1605632	3392	3392
1638400	3632	3584
1671168	3248	3232
1703936	2016	1984
1736704	2352	2288
1769472	2016	2016
1802240	2256	2240
1835008	1952	1856
1867776	4432	1680
1900544	14816	1744
1933312	16032	1728
1966080	16416	1536
1998848	15584	1744
2031616	12112	1584
2064384	1984	1952
2097152	3568	3536
2162688	3744	3696
2228224	4800	4640
2293760	3552	3424
2359296	4128	4064
2424832	4128	4080
2490368	3664	3600
2555904	3680	3536
2621440	3232	3184
2686976	2576	2512
2752512	2544	2416
2818048	2128	2080
2883584	2400	2352
2949120	2224	2208
3014656	2768	2768
3080192	3312	3264
3145728	3328	3296
3211264	3168	3120
3276800	2672	2576
3342336	2096	2096
3407872	2688	2672
3473408	2832	2816
3538944	1824	1792
3604480	1696	1632
3670016	1488	1456
3735552	1552	1520
3801088	1264	1248
3866624	1792	1792
3932160	880	880
3997696	1024	1024
4063232	1056	1024
4128768	1248	1248
4194304	1728	1696
4325376	1792	1680
4456448	1440	1392
4587520	1824	1824
4718592	1808	1808
4849664	1600	1584
4980736	1152	1152
5111808	1312	1296
5242880	992	976
5373952	1120	1104
5505024	1424	1424
5636096	1008	1008
5767168	800	768
5898240	1024	1024
6029312	992	976
6160384	832	832
6291456	1456	1456
6422528	1424	1424
6553600	2400	2400
6684672	2288	2288
6815744	1136	1120
6946816	2080	2080
7077888	1712	1712
7208960	2208	2192
7340032	864	864
7471104	592	592
7602176	384	384
7733248	448	448
7864320	400	400
7995392	848	848
8126464	512	512
8257536	1264	1264
8388608	3520	3520
8650752	2704	2704
8912896	1584	1568
9175040	2208	2208
9437184	1920	1904
9699328	944	928
9961472	624	624
10223616	608	608
10485760	496	496
10747904	720	720
11010048	784	784
11272192	800	800
11534336	1328	1296
11796480	672	656
12058624	464	464
12320768	336	336
12582912	880	880
12845056	624	624
13107200	704	704
13369344	576	560
13631488	448	448
13893632	208	208
14155776	464	464
14417920	496	496
14680064	128	128
14942208	688	688
15204352	208	208
15466496	624	624
15728640	592	592
15990784	816	800
16252928	80	80
16515072	112	112
16777216	272	272
17301504	352	336
17825792	528	528
18350080	240	240
18874368	128	128
19398656	528	528
19922944	528	528
20447232	80	80
20971520	480	480
21495808	944	928
22020096	432	432
22544384	1728	1728
23068672	1568	1568
23592960	656	656
24117248	400	400
24641536	1136	1136
25165824	1728	1728
25690112	992	992
26214400	1440	1440
26738688	1040	1040
27262976	1536	1536
27787264	1056	1056
28311552	1312	1312
28835840	544	544
29360128	1568	1568
29884416	912	912
30408704	928	928
30932992	896	896
31457280	1104	1104
31981568	592	592
32505856	320	320
33030144	1056	1056
33554432	1296	1296
34603008	976	976
35651584	272	272
36700160	624	624
37748736	640	640
38797312	656	656
39845888	560	560
40894464	656	656
41943040	1056	1056
42991616	1312	1312
44040192	1136	1136
45088768	848	848
46137344	1120	1120
47185920	1040	1040
48234496	720	720
49283072	1136	1136
50331648	400	400
51380224	1792	1792
52428800	1008	1008
53477376	752	752
54525952	464	464
55574528	736	736
56623104	1120	1120
57671680	656	656
58720256	192	192
59768832	416	416
60817408	752	752
61865984	176	176
62914560	496	496
63963136	592	592
65011712	80	80
66060288	416	416
67108864	272	272
69206016	992	976
71303168	240	240
73400320	400	400
75497472	432	432
77594624	1024	1024
79691776	400	400
81788928	400	400
83886080	800	800
85983232	352	352
88080384	320	320
90177536	160	160
92274688	896	896
94371840	176	176
96468992	864	864
98566144	480	480
100663296	336	336
102760448	944	944
104857600	336	336
106954752	592	576
109051904	304	304
111149056	976	976
113246208	96	96
115343360	496	496
117440512	656	656
119537664	464	464
121634816	496	496
123731968	432	432
125829120	432	432
127926272	320	320
130023424	48	48
132120576	576	576
134217728	768	768
138412032	240	240
142606336	688	688
146800640	816	816
150994944	352	352
155189248	1088	1088
159383552	1152	1152
163577856	480	480
167772160	400	400
171966464	1360	1360
176160768	1200	1200
180355072	1056	1056
184549376	1152	1152
188743680	1680	1680
192937984	704	704
197132288	832	832
201326592	592	592
205520896	1152	1152
209715200	1088	1088
213909504	1440	1440
218103808	1120	1120
222298112	1696	1696
226492416	224	224
230686720	496	496
234881024	672	672
239075328	576	576
243269632	672	672
247463936	400	400
251658240	688	688
255852544	432	432
260046848	336	336
264241152	512	512
268435456	832	832
276824064	624	624
285212672	240	240
293601280	960	960
301989888	640	640
310378496	288	288
318767104	240	240
327155712	560	560
335544320	80	80
343932928	0	0
352321536	32	32
360710144	0	0
369098752	0	0
377487360	16	16
385875968	16	16
394264576	0	0
402653184	0	0
411041792	0	0
419430400	0	0
427819008	0	0
436207616	0	0
444596224	0	0
452984832	0	0
461373440	0	0
469762048	0	0
478150656	0	0
486539264	0	0
494927872	0	0
503316480	0	0
511705088	0	0
520093696	0	0
528482304	0	0
536870912	0	0
553648128	0	0
570425344	0	0
587202560	0	0
603979776	0	0
620756992	0	0
637534208	0	0
654311424	0	0
671088640	0	0
687865856	0	0
704643072	0	0
721420288	0	0
738197504	0	0
754974720	0	0
771751936	0	0
788529152	0	0
805306368	0	0
822083584	0	0
838860800	0	0
855638016	0	0
872415232	0	0
889192448	0	0
905969664	0	0
922746880	0	0
939524096	0	0
956301312	0	0
973078528	0	0
989855744	0	0
1006632960	0	0
1023410176	0	0
1040187392	0	0
1056964608	0	0
1073741824	0	0
1107296256	0	0
1140850688	0	0
1174405120	0	0
1207959552	0	0
1241513984	0	0
1275068416	0	0
1308622848	0	0
1342177280	0	0
1375731712	0	0
1409286144	0	0
1442840576	0	0
1476395008	0	0
1509949440	0	0
1543503872	0	0
1577058304	0	0
1610612736	0	0
1644167168	0	0
1677721600	0	0
1711276032	0	0
1744830464	0	0
1778384896	0	0
1811939328	0	0
1845493760	0	0
1879048192	0	0
1912602624	0	0
1946157056	0	0
1979711488	0	0
2013265920	0	0
2046820352	0	0
2080374784	0	0
2113929216	0	0
2147483648	0	0
2214592512	0	0
2281701376	0	0
2348810240	0	0
2415919104	0	0
2483027968	0	0
2550136832	0	0
2617245696	0	0
2684354560	0	0
2751463424	0	0
2818572288	0	0
2885681152	0	0
2952790016	0	0
3019898880	0	0
3087007744	0	0
3154116608	0	0
3221225472	0	0
3288334336	0	0
3355443200	0	0
3422552064	0	0
3489660928	0	0
3556769792	0	0
3623878656	0	0
3690987520	0	0
3758096384	0	0
3825205248	0	0
3892314112	0	0
3959422976	0	0
4026531840	0	0
4093640704	0	0
4160749568	0	0
4227858432	0	0
~~~~~~~~~~Reuse Distance Profiler output end~~~~~~~~~~

DRAM Statistics
 CHANNEL 0
 RQ ROW_BUFFER_HIT:      14760  ROW_BUFFER_MISS:     376727
 DBUS AVG_CONGESTED_CYCLE:    3.97925
 WQ ROW_BUFFER_HIT:      13390  ROW_BUFFER_MISS:     151259  FULL:          0


CPU 0 Branch Prediction Accuracy: 94.6836% MPKI: 2.02369 Average ROB Occupancy at Mispredict: 93.1792
Branch type MPKI
BRANCH_DIRECT_JUMP: 3.86667e-05
BRANCH_INDIRECT: 8.66667e-06
BRANCH_CONDITIONAL: 2.02357
BRANCH_DIRECT_CALL: 3.13333e-05
BRANCH_INDIRECT_CALL: 1e-05
BRANCH_RETURN: 3.33333e-05

