
*** ChampSim Multicore Out-of-Order Simulator ***

Warmup Instructions: 500000000
Simulation Instructions: 1500000000
Number of CPUs: 1
Off-chip DRAM Size: 4 GiB Channels: 1 Width: 64-bit Data Rate: 3200 MT/s

VirtualMemory physical capacity: 8588881920 num_ppages: 2096895
VirtualMemory page size: 4096 log2_page_size: 12

CPU 0 runs traces/444.namd-44B.champsimtrace.xz
CPU 0 Bimodal branch predictor
Basic BTB sets: 1024 ways: 8 indirect buffer size: 4096 RAS size: 64
Initializing LRU.
Initializing LRU.
Initializing LRU.
Initializing LRU.
Initializing rdLRU.
Initializing LRU.
Initializing LRU.
Heartbeat CPU 0 instructions: 10000003 cycles: 2619483 heartbeat IPC: 3.81755 cumulative IPC: 3.81755 (Simulation time: 0 hr 0 min 38 sec) 
Heartbeat CPU 0 instructions: 20000001 cycles: 5274246 heartbeat IPC: 3.76681 cumulative IPC: 3.79201 (Simulation time: 0 hr 1 min 14 sec) 
Heartbeat CPU 0 instructions: 30000002 cycles: 7902755 heartbeat IPC: 3.80444 cumulative IPC: 3.79614 (Simulation time: 0 hr 1 min 49 sec) 
Heartbeat CPU 0 instructions: 40000003 cycles: 10544768 heartbeat IPC: 3.78499 cumulative IPC: 3.79335 (Simulation time: 0 hr 2 min 24 sec) 
Heartbeat CPU 0 instructions: 50000000 cycles: 13180430 heartbeat IPC: 3.79411 cumulative IPC: 3.7935 (Simulation time: 0 hr 3 min 0 sec) 
Heartbeat CPU 0 instructions: 60000001 cycles: 15812663 heartbeat IPC: 3.79906 cumulative IPC: 3.79443 (Simulation time: 0 hr 3 min 36 sec) 
Heartbeat CPU 0 instructions: 70000000 cycles: 18456910 heartbeat IPC: 3.78179 cumulative IPC: 3.79262 (Simulation time: 0 hr 4 min 11 sec) 
Heartbeat CPU 0 instructions: 80000003 cycles: 21078691 heartbeat IPC: 3.8142 cumulative IPC: 3.7953 (Simulation time: 0 hr 4 min 46 sec) 
Heartbeat CPU 0 instructions: 90000001 cycles: 23738020 heartbeat IPC: 3.76035 cumulative IPC: 3.79139 (Simulation time: 0 hr 5 min 22 sec) 
Heartbeat CPU 0 instructions: 100000002 cycles: 26375232 heartbeat IPC: 3.79188 cumulative IPC: 3.79144 (Simulation time: 0 hr 5 min 57 sec) 
Heartbeat CPU 0 instructions: 110000003 cycles: 29008187 heartbeat IPC: 3.79801 cumulative IPC: 3.79203 (Simulation time: 0 hr 6 min 33 sec) 
Heartbeat CPU 0 instructions: 120000001 cycles: 31657223 heartbeat IPC: 3.77496 cumulative IPC: 3.7906 (Simulation time: 0 hr 7 min 8 sec) 
Heartbeat CPU 0 instructions: 130000003 cycles: 34278451 heartbeat IPC: 3.81501 cumulative IPC: 3.79247 (Simulation time: 0 hr 7 min 43 sec) 
Heartbeat CPU 0 instructions: 140000002 cycles: 36934230 heartbeat IPC: 3.76537 cumulative IPC: 3.79052 (Simulation time: 0 hr 8 min 19 sec) 
Heartbeat CPU 0 instructions: 150000002 cycles: 39550343 heartbeat IPC: 3.82246 cumulative IPC: 3.79263 (Simulation time: 0 hr 8 min 54 sec) 
Heartbeat CPU 0 instructions: 160000000 cycles: 42202026 heartbeat IPC: 3.77119 cumulative IPC: 3.79129 (Simulation time: 0 hr 9 min 30 sec) 
Heartbeat CPU 0 instructions: 170000001 cycles: 44836843 heartbeat IPC: 3.79533 cumulative IPC: 3.79152 (Simulation time: 0 hr 10 min 5 sec) 
Heartbeat CPU 0 instructions: 180000003 cycles: 47470438 heartbeat IPC: 3.79709 cumulative IPC: 3.79183 (Simulation time: 0 hr 10 min 41 sec) 
Heartbeat CPU 0 instructions: 190000000 cycles: 50110747 heartbeat IPC: 3.78743 cumulative IPC: 3.7916 (Simulation time: 0 hr 11 min 16 sec) 
Heartbeat CPU 0 instructions: 200000003 cycles: 52737639 heartbeat IPC: 3.80678 cumulative IPC: 3.79236 (Simulation time: 0 hr 11 min 52 sec) 
Heartbeat CPU 0 instructions: 210000003 cycles: 55386111 heartbeat IPC: 3.77576 cumulative IPC: 3.79156 (Simulation time: 0 hr 12 min 28 sec) 
Heartbeat CPU 0 instructions: 220000003 cycles: 58003725 heartbeat IPC: 3.82027 cumulative IPC: 3.79286 (Simulation time: 0 hr 13 min 3 sec) 
Heartbeat CPU 0 instructions: 230000003 cycles: 60658280 heartbeat IPC: 3.76711 cumulative IPC: 3.79173 (Simulation time: 0 hr 13 min 51 sec) 
Heartbeat CPU 0 instructions: 240000002 cycles: 63294517 heartbeat IPC: 3.79329 cumulative IPC: 3.7918 (Simulation time: 0 hr 14 min 50 sec) 
Heartbeat CPU 0 instructions: 250000000 cycles: 65930318 heartbeat IPC: 3.79391 cumulative IPC: 3.79188 (Simulation time: 0 hr 15 min 55 sec) 
Heartbeat CPU 0 instructions: 260000000 cycles: 68577759 heartbeat IPC: 3.77723 cumulative IPC: 3.79132 (Simulation time: 0 hr 17 min 0 sec) 
Heartbeat CPU 0 instructions: 270000001 cycles: 71202734 heartbeat IPC: 3.80956 cumulative IPC: 3.79199 (Simulation time: 0 hr 18 min 5 sec) 
Heartbeat CPU 0 instructions: 280000002 cycles: 73853483 heartbeat IPC: 3.77252 cumulative IPC: 3.79129 (Simulation time: 0 hr 19 min 10 sec) 
Heartbeat CPU 0 instructions: 290000002 cycles: 76468904 heartbeat IPC: 3.82348 cumulative IPC: 3.79239 (Simulation time: 0 hr 20 min 14 sec) 
Heartbeat CPU 0 instructions: 300000000 cycles: 79122536 heartbeat IPC: 3.76842 cumulative IPC: 3.79159 (Simulation time: 0 hr 21 min 14 sec) 
Heartbeat CPU 0 instructions: 310000000 cycles: 81755420 heartbeat IPC: 3.79812 cumulative IPC: 3.7918 (Simulation time: 0 hr 21 min 49 sec) 
Heartbeat CPU 0 instructions: 320000002 cycles: 84385284 heartbeat IPC: 3.80248 cumulative IPC: 3.79213 (Simulation time: 0 hr 22 min 24 sec) 
Heartbeat CPU 0 instructions: 330000000 cycles: 87027821 heartbeat IPC: 3.78424 cumulative IPC: 3.79189 (Simulation time: 0 hr 22 min 59 sec) 
Heartbeat CPU 0 instructions: 340000003 cycles: 89651118 heartbeat IPC: 3.812 cumulative IPC: 3.79248 (Simulation time: 0 hr 23 min 34 sec) 
Heartbeat CPU 0 instructions: 350000004 cycles: 92297445 heartbeat IPC: 3.77882 cumulative IPC: 3.79209 (Simulation time: 0 hr 24 min 9 sec) 
Heartbeat CPU 0 instructions: 360000000 cycles: 94935704 heartbeat IPC: 3.79038 cumulative IPC: 3.79204 (Simulation time: 0 hr 24 min 44 sec) 
Heartbeat CPU 0 instructions: 370000003 cycles: 97567023 heartbeat IPC: 3.80038 cumulative IPC: 3.79226 (Simulation time: 0 hr 25 min 19 sec) 
Heartbeat CPU 0 instructions: 380000000 cycles: 100208018 heartbeat IPC: 3.78645 cumulative IPC: 3.79211 (Simulation time: 0 hr 25 min 55 sec) 
Heartbeat CPU 0 instructions: 390000001 cycles: 102836721 heartbeat IPC: 3.80416 cumulative IPC: 3.79242 (Simulation time: 0 hr 26 min 30 sec) 
Heartbeat CPU 0 instructions: 400000003 cycles: 105482564 heartbeat IPC: 3.77951 cumulative IPC: 3.7921 (Simulation time: 0 hr 27 min 5 sec) 
Heartbeat CPU 0 instructions: 410000002 cycles: 108103002 heartbeat IPC: 3.81616 cumulative IPC: 3.79268 (Simulation time: 0 hr 27 min 40 sec) 
Heartbeat CPU 0 instructions: 420000001 cycles: 110752694 heartbeat IPC: 3.77402 cumulative IPC: 3.79223 (Simulation time: 0 hr 28 min 15 sec) 
Heartbeat CPU 0 instructions: 430000000 cycles: 113378871 heartbeat IPC: 3.80782 cumulative IPC: 3.79259 (Simulation time: 0 hr 28 min 50 sec) 
Heartbeat CPU 0 instructions: 440000003 cycles: 116020033 heartbeat IPC: 3.78621 cumulative IPC: 3.79245 (Simulation time: 0 hr 29 min 25 sec) 
Heartbeat CPU 0 instructions: 450000002 cycles: 118658965 heartbeat IPC: 3.78941 cumulative IPC: 3.79238 (Simulation time: 0 hr 30 min 0 sec) 
Heartbeat CPU 0 instructions: 460000002 cycles: 121282603 heartbeat IPC: 3.8115 cumulative IPC: 3.79279 (Simulation time: 0 hr 30 min 35 sec) 
Heartbeat CPU 0 instructions: 470000003 cycles: 123929473 heartbeat IPC: 3.77805 cumulative IPC: 3.79248 (Simulation time: 0 hr 31 min 10 sec) 
Heartbeat CPU 0 instructions: 480000002 cycles: 126548197 heartbeat IPC: 3.81865 cumulative IPC: 3.79302 (Simulation time: 0 hr 31 min 45 sec) 
Heartbeat CPU 0 instructions: 490000003 cycles: 129197656 heartbeat IPC: 3.77436 cumulative IPC: 3.79264 (Simulation time: 0 hr 32 min 20 sec) 
Heartbeat CPU 0 instructions: 500000001 cycles: 131815355 heartbeat IPC: 3.82015 cumulative IPC: 3.79318 (Simulation time: 0 hr 33 min 8 sec) 

Warmup complete CPU 0 instructions: 500000001 cycles: 131815355 (Simulation time: 0 hr 33 min 8 sec) 

Heartbeat CPU 0 instructions: 510000000 cycles: 136680434 heartbeat IPC: 2.05546 cumulative IPC: 2.05546 (Simulation time: 0 hr 33 min 58 sec) 
Heartbeat CPU 0 instructions: 520000000 cycles: 141582412 heartbeat IPC: 2.03999 cumulative IPC: 2.0477 (Simulation time: 0 hr 34 min 53 sec) 
Heartbeat CPU 0 instructions: 530000004 cycles: 146498168 heartbeat IPC: 2.03428 cumulative IPC: 2.04321 (Simulation time: 0 hr 35 min 45 sec) 
Heartbeat CPU 0 instructions: 540000002 cycles: 151353647 heartbeat IPC: 2.05953 cumulative IPC: 2.04726 (Simulation time: 0 hr 36 min 36 sec) 
Heartbeat CPU 0 instructions: 550000000 cycles: 156195240 heartbeat IPC: 2.06544 cumulative IPC: 2.05087 (Simulation time: 0 hr 37 min 26 sec) 
Heartbeat CPU 0 instructions: 560000003 cycles: 161141375 heartbeat IPC: 2.02178 cumulative IPC: 2.04596 (Simulation time: 0 hr 38 min 16 sec) 
Heartbeat CPU 0 instructions: 570000000 cycles: 165968219 heartbeat IPC: 2.07175 cumulative IPC: 2.04961 (Simulation time: 0 hr 39 min 6 sec) 
Heartbeat CPU 0 instructions: 580000000 cycles: 170951777 heartbeat IPC: 2.0066 cumulative IPC: 2.04413 (Simulation time: 0 hr 39 min 57 sec) 
Heartbeat CPU 0 instructions: 590000000 cycles: 175796107 heartbeat IPC: 2.06427 cumulative IPC: 2.04635 (Simulation time: 0 hr 40 min 48 sec) 
Heartbeat CPU 0 instructions: 600000002 cycles: 180761758 heartbeat IPC: 2.01383 cumulative IPC: 2.04305 (Simulation time: 0 hr 41 min 39 sec) 
Heartbeat CPU 0 instructions: 610000004 cycles: 185598753 heartbeat IPC: 2.0674 cumulative IPC: 2.04524 (Simulation time: 0 hr 42 min 31 sec) 
Heartbeat CPU 0 instructions: 620000003 cycles: 190470921 heartbeat IPC: 2.05247 cumulative IPC: 2.04584 (Simulation time: 0 hr 43 min 24 sec) 
Heartbeat CPU 0 instructions: 630000004 cycles: 195272801 heartbeat IPC: 2.08252 cumulative IPC: 2.04862 (Simulation time: 0 hr 44 min 16 sec) 
Heartbeat CPU 0 instructions: 640000000 cycles: 200137575 heartbeat IPC: 2.05559 cumulative IPC: 2.04911 (Simulation time: 0 hr 45 min 7 sec) 
Heartbeat CPU 0 instructions: 650000003 cycles: 205012976 heartbeat IPC: 2.05111 cumulative IPC: 2.04925 (Simulation time: 0 hr 46 min 1 sec) 
Heartbeat CPU 0 instructions: 660000000 cycles: 209795427 heartbeat IPC: 2.09098 cumulative IPC: 2.05181 (Simulation time: 0 hr 46 min 54 sec) 
Heartbeat CPU 0 instructions: 670000002 cycles: 214559978 heartbeat IPC: 2.09883 cumulative IPC: 2.05451 (Simulation time: 0 hr 47 min 47 sec) 
Heartbeat CPU 0 instructions: 680000002 cycles: 219440791 heartbeat IPC: 2.04884 cumulative IPC: 2.0542 (Simulation time: 0 hr 48 min 39 sec) 
Heartbeat CPU 0 instructions: 690000001 cycles: 224197891 heartbeat IPC: 2.10212 cumulative IPC: 2.05667 (Simulation time: 0 hr 49 min 33 sec) 
Heartbeat CPU 0 instructions: 700000002 cycles: 229091524 heartbeat IPC: 2.04347 cumulative IPC: 2.056 (Simulation time: 0 hr 50 min 48 sec) 
Heartbeat CPU 0 instructions: 710000000 cycles: 233913629 heartbeat IPC: 2.07378 cumulative IPC: 2.05684 (Simulation time: 0 hr 52 min 0 sec) 
Heartbeat CPU 0 instructions: 720000002 cycles: 238768872 heartbeat IPC: 2.05963 cumulative IPC: 2.05697 (Simulation time: 0 hr 52 min 55 sec) 
Heartbeat CPU 0 instructions: 730000000 cycles: 243742433 heartbeat IPC: 2.01063 cumulative IPC: 2.05491 (Simulation time: 0 hr 54 min 16 sec) 
Heartbeat CPU 0 instructions: 740000000 cycles: 248603658 heartbeat IPC: 2.05709 cumulative IPC: 2.055 (Simulation time: 0 hr 55 min 5 sec) 
Heartbeat CPU 0 instructions: 750000002 cycles: 253503295 heartbeat IPC: 2.04097 cumulative IPC: 2.05444 (Simulation time: 0 hr 55 min 55 sec) 
Heartbeat CPU 0 instructions: 760000003 cycles: 258354688 heartbeat IPC: 2.06126 cumulative IPC: 2.0547 (Simulation time: 0 hr 56 min 45 sec) 
Heartbeat CPU 0 instructions: 770000004 cycles: 263263955 heartbeat IPC: 2.03696 cumulative IPC: 2.05403 (Simulation time: 0 hr 57 min 35 sec) 
Heartbeat CPU 0 instructions: 780000003 cycles: 268072676 heartbeat IPC: 2.07955 cumulative IPC: 2.05494 (Simulation time: 0 hr 58 min 24 sec) 
Heartbeat CPU 0 instructions: 790000000 cycles: 272857477 heartbeat IPC: 2.08995 cumulative IPC: 2.05612 (Simulation time: 0 hr 59 min 14 sec) 
Heartbeat CPU 0 instructions: 800000003 cycles: 277739791 heartbeat IPC: 2.04821 cumulative IPC: 2.05586 (Simulation time: 1 hr 0 min 3 sec) 
Heartbeat CPU 0 instructions: 810000003 cycles: 282502622 heartbeat IPC: 2.09959 cumulative IPC: 2.05724 (Simulation time: 1 hr 0 min 53 sec) 
Heartbeat CPU 0 instructions: 820000004 cycles: 287259922 heartbeat IPC: 2.10203 cumulative IPC: 2.05861 (Simulation time: 1 hr 1 min 43 sec) 
Heartbeat CPU 0 instructions: 830000003 cycles: 292126607 heartbeat IPC: 2.05479 cumulative IPC: 2.0585 (Simulation time: 1 hr 2 min 33 sec) 
Heartbeat CPU 0 instructions: 840000003 cycles: 296867073 heartbeat IPC: 2.1095 cumulative IPC: 2.05996 (Simulation time: 1 hr 3 min 23 sec) 
Heartbeat CPU 0 instructions: 850000001 cycles: 301736722 heartbeat IPC: 2.05354 cumulative IPC: 2.05978 (Simulation time: 1 hr 4 min 12 sec) 
Heartbeat CPU 0 instructions: 860000002 cycles: 306512672 heartbeat IPC: 2.09382 cumulative IPC: 2.06071 (Simulation time: 1 hr 5 min 1 sec) 
Heartbeat CPU 0 instructions: 870000003 cycles: 311278308 heartbeat IPC: 2.09836 cumulative IPC: 2.06171 (Simulation time: 1 hr 5 min 50 sec) 
Heartbeat CPU 0 instructions: 880000000 cycles: 316177081 heartbeat IPC: 2.04133 cumulative IPC: 2.06117 (Simulation time: 1 hr 6 min 51 sec) 
Heartbeat CPU 0 instructions: 890000001 cycles: 321040591 heartbeat IPC: 2.05613 cumulative IPC: 2.06104 (Simulation time: 1 hr 7 min 48 sec) 
Heartbeat CPU 0 instructions: 900000000 cycles: 325955320 heartbeat IPC: 2.0347 cumulative IPC: 2.06037 (Simulation time: 1 hr 8 min 50 sec) 
Heartbeat CPU 0 instructions: 910000004 cycles: 330837672 heartbeat IPC: 2.04819 cumulative IPC: 2.06007 (Simulation time: 1 hr 9 min 40 sec) 
Heartbeat CPU 0 instructions: 920000000 cycles: 335688221 heartbeat IPC: 2.06162 cumulative IPC: 2.06011 (Simulation time: 1 hr 10 min 30 sec) 
Heartbeat CPU 0 instructions: 930000000 cycles: 340572319 heartbeat IPC: 2.04746 cumulative IPC: 2.05981 (Simulation time: 1 hr 11 min 19 sec) 
Heartbeat CPU 0 instructions: 940000000 cycles: 345338260 heartbeat IPC: 2.09822 cumulative IPC: 2.06067 (Simulation time: 1 hr 12 min 10 sec) 
Heartbeat CPU 0 instructions: 950000001 cycles: 350230703 heartbeat IPC: 2.04397 cumulative IPC: 2.06029 (Simulation time: 1 hr 13 min 0 sec) 
Heartbeat CPU 0 instructions: 960000002 cycles: 355004564 heartbeat IPC: 2.09474 cumulative IPC: 2.06103 (Simulation time: 1 hr 13 min 51 sec) 
Heartbeat CPU 0 instructions: 970000000 cycles: 359780155 heartbeat IPC: 2.09398 cumulative IPC: 2.06172 (Simulation time: 1 hr 14 min 41 sec) 
Heartbeat CPU 0 instructions: 980000002 cycles: 364643001 heartbeat IPC: 2.05641 cumulative IPC: 2.06161 (Simulation time: 1 hr 15 min 31 sec) 
Heartbeat CPU 0 instructions: 990000002 cycles: 369420364 heartbeat IPC: 2.0932 cumulative IPC: 2.06225 (Simulation time: 1 hr 16 min 21 sec) 
Heartbeat CPU 0 instructions: 1000000002 cycles: 374186727 heartbeat IPC: 2.09804 cumulative IPC: 2.06295 (Simulation time: 1 hr 17 min 11 sec) 
Heartbeat CPU 0 instructions: 1010000003 cycles: 379056072 heartbeat IPC: 2.05366 cumulative IPC: 2.06277 (Simulation time: 1 hr 18 min 1 sec) 
Heartbeat CPU 0 instructions: 1020000003 cycles: 383824848 heartbeat IPC: 2.09697 cumulative IPC: 2.06341 (Simulation time: 1 hr 18 min 51 sec) 
Heartbeat CPU 0 instructions: 1030000001 cycles: 388590847 heartbeat IPC: 2.0982 cumulative IPC: 2.06406 (Simulation time: 1 hr 19 min 41 sec) 
Heartbeat CPU 0 instructions: 1040000003 cycles: 393535726 heartbeat IPC: 2.02229 cumulative IPC: 2.06327 (Simulation time: 1 hr 20 min 30 sec) 
Heartbeat CPU 0 instructions: 1050000000 cycles: 398392652 heartbeat IPC: 2.05891 cumulative IPC: 2.06319 (Simulation time: 1 hr 21 min 20 sec) 
Heartbeat CPU 0 instructions: 1060000000 cycles: 403325823 heartbeat IPC: 2.02709 cumulative IPC: 2.06254 (Simulation time: 1 hr 22 min 10 sec) 
Heartbeat CPU 0 instructions: 1070000001 cycles: 408196324 heartbeat IPC: 2.05318 cumulative IPC: 2.06237 (Simulation time: 1 hr 23 min 0 sec) 
Heartbeat CPU 0 instructions: 1080000001 cycles: 413100320 heartbeat IPC: 2.03915 cumulative IPC: 2.06197 (Simulation time: 1 hr 23 min 50 sec) 
Heartbeat CPU 0 instructions: 1090000004 cycles: 417966142 heartbeat IPC: 2.05515 cumulative IPC: 2.06185 (Simulation time: 1 hr 24 min 43 sec) 
Heartbeat CPU 0 instructions: 1100000001 cycles: 422836933 heartbeat IPC: 2.05305 cumulative IPC: 2.0617 (Simulation time: 1 hr 25 min 35 sec) 
Heartbeat CPU 0 instructions: 1110000001 cycles: 427731425 heartbeat IPC: 2.04311 cumulative IPC: 2.0614 (Simulation time: 1 hr 26 min 24 sec) 
Heartbeat CPU 0 instructions: 1120000000 cycles: 432507106 heartbeat IPC: 2.09394 cumulative IPC: 2.06191 (Simulation time: 1 hr 27 min 41 sec) 
Heartbeat CPU 0 instructions: 1130000000 cycles: 437266408 heartbeat IPC: 2.10115 cumulative IPC: 2.06252 (Simulation time: 1 hr 28 min 48 sec) 
Heartbeat CPU 0 instructions: 1140000004 cycles: 442143359 heartbeat IPC: 2.05046 cumulative IPC: 2.06233 (Simulation time: 1 hr 29 min 53 sec) 
Heartbeat CPU 0 instructions: 1150000004 cycles: 446908334 heartbeat IPC: 2.09865 cumulative IPC: 2.06288 (Simulation time: 1 hr 30 min 43 sec) 
Heartbeat CPU 0 instructions: 1160000000 cycles: 451784249 heartbeat IPC: 2.0509 cumulative IPC: 2.0627 (Simulation time: 1 hr 31 min 33 sec) 
Heartbeat CPU 0 instructions: 1170000003 cycles: 456583053 heartbeat IPC: 2.08385 cumulative IPC: 2.06301 (Simulation time: 1 hr 32 min 23 sec) 
Heartbeat CPU 0 instructions: 1180000000 cycles: 461424092 heartbeat IPC: 2.06567 cumulative IPC: 2.06305 (Simulation time: 1 hr 33 min 13 sec) 
Heartbeat CPU 0 instructions: 1190000004 cycles: 466389486 heartbeat IPC: 2.01394 cumulative IPC: 2.06232 (Simulation time: 1 hr 34 min 3 sec) 
Heartbeat CPU 0 instructions: 1200000003 cycles: 471239139 heartbeat IPC: 2.062 cumulative IPC: 2.06232 (Simulation time: 1 hr 34 min 53 sec) 
Heartbeat CPU 0 instructions: 1210000000 cycles: 476190412 heartbeat IPC: 2.01968 cumulative IPC: 2.06171 (Simulation time: 1 hr 35 min 44 sec) 
Heartbeat CPU 0 instructions: 1220000004 cycles: 481044663 heartbeat IPC: 2.06005 cumulative IPC: 2.06168 (Simulation time: 1 hr 36 min 36 sec) 
Heartbeat CPU 0 instructions: 1230000001 cycles: 485975052 heartbeat IPC: 2.02824 cumulative IPC: 2.06122 (Simulation time: 1 hr 37 min 27 sec) 
Heartbeat CPU 0 instructions: 1240000002 cycles: 490876897 heartbeat IPC: 2.04005 cumulative IPC: 2.06093 (Simulation time: 1 hr 38 min 17 sec) 
Heartbeat CPU 0 instructions: 1250000001 cycles: 495690096 heartbeat IPC: 2.07762 cumulative IPC: 2.06115 (Simulation time: 1 hr 39 min 8 sec) 
Heartbeat CPU 0 instructions: 1260000000 cycles: 500604569 heartbeat IPC: 2.03481 cumulative IPC: 2.0608 (Simulation time: 1 hr 39 min 58 sec) 
Heartbeat CPU 0 instructions: 1270000000 cycles: 505439049 heartbeat IPC: 2.06847 cumulative IPC: 2.0609 (Simulation time: 1 hr 40 min 48 sec) 
Heartbeat CPU 0 instructions: 1280000000 cycles: 510327761 heartbeat IPC: 2.04553 cumulative IPC: 2.0607 (Simulation time: 1 hr 41 min 38 sec) 
Heartbeat CPU 0 instructions: 1290000003 cycles: 515176063 heartbeat IPC: 2.06258 cumulative IPC: 2.06072 (Simulation time: 1 hr 42 min 28 sec) 
Heartbeat CPU 0 instructions: 1300000001 cycles: 520088614 heartbeat IPC: 2.0356 cumulative IPC: 2.0604 (Simulation time: 1 hr 43 min 17 sec) 
Heartbeat CPU 0 instructions: 1310000004 cycles: 524990820 heartbeat IPC: 2.0399 cumulative IPC: 2.06015 (Simulation time: 1 hr 44 min 7 sec) 
Heartbeat CPU 0 instructions: 1320000004 cycles: 529786452 heartbeat IPC: 2.08523 cumulative IPC: 2.06045 (Simulation time: 1 hr 44 min 57 sec) 
Heartbeat CPU 0 instructions: 1330000004 cycles: 534793620 heartbeat IPC: 1.99714 cumulative IPC: 2.05966 (Simulation time: 1 hr 45 min 46 sec) 
Heartbeat CPU 0 instructions: 1340000001 cycles: 539640697 heartbeat IPC: 2.0631 cumulative IPC: 2.05971 (Simulation time: 1 hr 46 min 36 sec) 
Heartbeat CPU 0 instructions: 1350000003 cycles: 544606800 heartbeat IPC: 2.01365 cumulative IPC: 2.05915 (Simulation time: 1 hr 47 min 27 sec) 
Heartbeat CPU 0 instructions: 1360000002 cycles: 549504297 heartbeat IPC: 2.04186 cumulative IPC: 2.05895 (Simulation time: 1 hr 48 min 16 sec) 
Heartbeat CPU 0 instructions: 1370000001 cycles: 554425917 heartbeat IPC: 2.03185 cumulative IPC: 2.05863 (Simulation time: 1 hr 49 min 7 sec) 
Heartbeat CPU 0 instructions: 1380000002 cycles: 559316335 heartbeat IPC: 2.04482 cumulative IPC: 2.05847 (Simulation time: 1 hr 49 min 57 sec) 
Heartbeat CPU 0 instructions: 1390000003 cycles: 564132872 heartbeat IPC: 2.07618 cumulative IPC: 2.05867 (Simulation time: 1 hr 50 min 47 sec) 
Heartbeat CPU 0 instructions: 1400000004 cycles: 569080950 heartbeat IPC: 2.02099 cumulative IPC: 2.05825 (Simulation time: 1 hr 51 min 36 sec) 
Heartbeat CPU 0 instructions: 1410000003 cycles: 573939977 heartbeat IPC: 2.05802 cumulative IPC: 2.05824 (Simulation time: 1 hr 52 min 25 sec) 
Heartbeat CPU 0 instructions: 1420000000 cycles: 578841626 heartbeat IPC: 2.04013 cumulative IPC: 2.05804 (Simulation time: 1 hr 53 min 15 sec) 
Heartbeat CPU 0 instructions: 1430000004 cycles: 583701945 heartbeat IPC: 2.05748 cumulative IPC: 2.05804 (Simulation time: 1 hr 54 min 4 sec) 
Heartbeat CPU 0 instructions: 1440000002 cycles: 588613137 heartbeat IPC: 2.03617 cumulative IPC: 2.0578 (Simulation time: 1 hr 54 min 53 sec) 
Heartbeat CPU 0 instructions: 1450000000 cycles: 593537193 heartbeat IPC: 2.03085 cumulative IPC: 2.05752 (Simulation time: 1 hr 55 min 42 sec) 
Heartbeat CPU 0 instructions: 1460000003 cycles: 598359714 heartbeat IPC: 2.0736 cumulative IPC: 2.05768 (Simulation time: 1 hr 56 min 32 sec) 
Heartbeat CPU 0 instructions: 1470000004 cycles: 603358850 heartbeat IPC: 2.00035 cumulative IPC: 2.05707 (Simulation time: 1 hr 57 min 22 sec) 
Heartbeat CPU 0 instructions: 1480000002 cycles: 608223379 heartbeat IPC: 2.0557 cumulative IPC: 2.05706 (Simulation time: 1 hr 58 min 12 sec) 
Heartbeat CPU 0 instructions: 1490000003 cycles: 613169673 heartbeat IPC: 2.02172 cumulative IPC: 2.0567 (Simulation time: 1 hr 59 min 2 sec) 
Heartbeat CPU 0 instructions: 1500000000 cycles: 618035355 heartbeat IPC: 2.05521 cumulative IPC: 2.05668 (Simulation time: 1 hr 59 min 51 sec) 
Heartbeat CPU 0 instructions: 1510000001 cycles: 622903257 heartbeat IPC: 2.05427 cumulative IPC: 2.05666 (Simulation time: 2 hr 0 min 42 sec) 
Heartbeat CPU 0 instructions: 1520000004 cycles: 627701304 heartbeat IPC: 2.08418 cumulative IPC: 2.05692 (Simulation time: 2 hr 1 min 31 sec) 
Heartbeat CPU 0 instructions: 1530000002 cycles: 632536432 heartbeat IPC: 2.0682 cumulative IPC: 2.05703 (Simulation time: 2 hr 2 min 20 sec) 
Heartbeat CPU 0 instructions: 1540000001 cycles: 637430541 heartbeat IPC: 2.04327 cumulative IPC: 2.0569 (Simulation time: 2 hr 3 min 11 sec) 
Heartbeat CPU 0 instructions: 1550000004 cycles: 642198165 heartbeat IPC: 2.09748 cumulative IPC: 2.05728 (Simulation time: 2 hr 4 min 7 sec) 
Heartbeat CPU 0 instructions: 1560000003 cycles: 646998762 heartbeat IPC: 2.08307 cumulative IPC: 2.05752 (Simulation time: 2 hr 5 min 35 sec) 
Heartbeat CPU 0 instructions: 1570000000 cycles: 651868506 heartbeat IPC: 2.0535 cumulative IPC: 2.05748 (Simulation time: 2 hr 6 min 57 sec) 
Heartbeat CPU 0 instructions: 1580000002 cycles: 656630610 heartbeat IPC: 2.09991 cumulative IPC: 2.05787 (Simulation time: 2 hr 7 min 49 sec) 
Heartbeat CPU 0 instructions: 1590000000 cycles: 661503035 heartbeat IPC: 2.05237 cumulative IPC: 2.05782 (Simulation time: 2 hr 8 min 42 sec) 
Heartbeat CPU 0 instructions: 1600000000 cycles: 666267458 heartbeat IPC: 2.09889 cumulative IPC: 2.05818 (Simulation time: 2 hr 9 min 34 sec) 
Heartbeat CPU 0 instructions: 1610000000 cycles: 671088680 heartbeat IPC: 2.07416 cumulative IPC: 2.05833 (Simulation time: 2 hr 10 min 26 sec) 
Heartbeat CPU 0 instructions: 1620000002 cycles: 676086623 heartbeat IPC: 2.00082 cumulative IPC: 2.0578 (Simulation time: 2 hr 11 min 17 sec) 
Heartbeat CPU 0 instructions: 1630000003 cycles: 680926761 heartbeat IPC: 2.06606 cumulative IPC: 2.05787 (Simulation time: 2 hr 12 min 20 sec) 
Heartbeat CPU 0 instructions: 1640000001 cycles: 685875521 heartbeat IPC: 2.02071 cumulative IPC: 2.05754 (Simulation time: 2 hr 13 min 29 sec) 
Heartbeat CPU 0 instructions: 1650000000 cycles: 690731415 heartbeat IPC: 2.05935 cumulative IPC: 2.05755 (Simulation time: 2 hr 14 min 55 sec) 
Heartbeat CPU 0 instructions: 1660000003 cycles: 695623868 heartbeat IPC: 2.04397 cumulative IPC: 2.05744 (Simulation time: 2 hr 16 min 15 sec) 
Heartbeat CPU 0 instructions: 1670000001 cycles: 700413979 heartbeat IPC: 2.08763 cumulative IPC: 2.05769 (Simulation time: 2 hr 17 min 6 sec) 
Heartbeat CPU 0 instructions: 1680000001 cycles: 705189798 heartbeat IPC: 2.09388 cumulative IPC: 2.05799 (Simulation time: 2 hr 18 min 0 sec) 
Heartbeat CPU 0 instructions: 1690000002 cycles: 710088313 heartbeat IPC: 2.04144 cumulative IPC: 2.05785 (Simulation time: 2 hr 19 min 3 sec) 
Heartbeat CPU 0 instructions: 1700000000 cycles: 714858682 heartbeat IPC: 2.09627 cumulative IPC: 2.05817 (Simulation time: 2 hr 19 min 53 sec) 
Heartbeat CPU 0 instructions: 1710000003 cycles: 719617047 heartbeat IPC: 2.10156 cumulative IPC: 2.05852 (Simulation time: 2 hr 20 min 43 sec) 
Heartbeat CPU 0 instructions: 1720000002 cycles: 724504090 heartbeat IPC: 2.04623 cumulative IPC: 2.05842 (Simulation time: 2 hr 21 min 32 sec) 
Heartbeat CPU 0 instructions: 1730000004 cycles: 729281169 heartbeat IPC: 2.09333 cumulative IPC: 2.0587 (Simulation time: 2 hr 22 min 41 sec) 
Heartbeat CPU 0 instructions: 1740000004 cycles: 734048708 heartbeat IPC: 2.09752 cumulative IPC: 2.059 (Simulation time: 2 hr 24 min 10 sec) 
Heartbeat CPU 0 instructions: 1750000000 cycles: 738913571 heartbeat IPC: 2.05556 cumulative IPC: 2.05897 (Simulation time: 2 hr 25 min 40 sec) 
Heartbeat CPU 0 instructions: 1760000003 cycles: 743688297 heartbeat IPC: 2.09436 cumulative IPC: 2.05925 (Simulation time: 2 hr 26 min 32 sec) 
Heartbeat CPU 0 instructions: 1770000000 cycles: 748547058 heartbeat IPC: 2.05814 cumulative IPC: 2.05924 (Simulation time: 2 hr 27 min 22 sec) 
Heartbeat CPU 0 instructions: 1780000003 cycles: 753399938 heartbeat IPC: 2.06063 cumulative IPC: 2.05925 (Simulation time: 2 hr 28 min 12 sec) 
Heartbeat CPU 0 instructions: 1790000001 cycles: 758234322 heartbeat IPC: 2.06852 cumulative IPC: 2.05932 (Simulation time: 2 hr 29 min 2 sec) 
Heartbeat CPU 0 instructions: 1800000003 cycles: 763153322 heartbeat IPC: 2.03293 cumulative IPC: 2.05912 (Simulation time: 2 hr 29 min 53 sec) 
Heartbeat CPU 0 instructions: 1810000000 cycles: 768019275 heartbeat IPC: 2.0551 cumulative IPC: 2.05909 (Simulation time: 2 hr 30 min 44 sec) 
Heartbeat CPU 0 instructions: 1820000000 cycles: 772935721 heartbeat IPC: 2.03399 cumulative IPC: 2.0589 (Simulation time: 2 hr 31 min 35 sec) 
Heartbeat CPU 0 instructions: 1830000002 cycles: 777736266 heartbeat IPC: 2.0831 cumulative IPC: 2.05908 (Simulation time: 2 hr 32 min 27 sec) 
Heartbeat CPU 0 instructions: 1840000001 cycles: 782514835 heartbeat IPC: 2.09268 cumulative IPC: 2.05932 (Simulation time: 2 hr 33 min 17 sec) 
Heartbeat CPU 0 instructions: 1850000000 cycles: 787413661 heartbeat IPC: 2.04131 cumulative IPC: 2.05919 (Simulation time: 2 hr 34 min 9 sec) 
Heartbeat CPU 0 instructions: 1860000000 cycles: 792195143 heartbeat IPC: 2.0914 cumulative IPC: 2.05942 (Simulation time: 2 hr 35 min 1 sec) 
Heartbeat CPU 0 instructions: 1870000001 cycles: 796950681 heartbeat IPC: 2.10281 cumulative IPC: 2.05973 (Simulation time: 2 hr 35 min 52 sec) 
Heartbeat CPU 0 instructions: 1880000002 cycles: 801845145 heartbeat IPC: 2.04312 cumulative IPC: 2.05961 (Simulation time: 2 hr 36 min 43 sec) 
Heartbeat CPU 0 instructions: 1890000000 cycles: 806625868 heartbeat IPC: 2.09173 cumulative IPC: 2.05984 (Simulation time: 2 hr 37 min 33 sec) 
Heartbeat CPU 0 instructions: 1900000002 cycles: 811397218 heartbeat IPC: 2.09584 cumulative IPC: 2.06009 (Simulation time: 2 hr 38 min 24 sec) 
Heartbeat CPU 0 instructions: 1910000003 cycles: 816263360 heartbeat IPC: 2.05502 cumulative IPC: 2.06005 (Simulation time: 2 hr 39 min 13 sec) 
Heartbeat CPU 0 instructions: 1920000002 cycles: 821037677 heartbeat IPC: 2.09454 cumulative IPC: 2.06029 (Simulation time: 2 hr 40 min 2 sec) 
Heartbeat CPU 0 instructions: 1930000002 cycles: 825808735 heartbeat IPC: 2.09597 cumulative IPC: 2.06054 (Simulation time: 2 hr 40 min 50 sec) 
Heartbeat CPU 0 instructions: 1940000004 cycles: 830760428 heartbeat IPC: 2.01951 cumulative IPC: 2.06025 (Simulation time: 2 hr 41 min 39 sec) 
Heartbeat CPU 0 instructions: 1950000001 cycles: 835620146 heartbeat IPC: 2.05773 cumulative IPC: 2.06023 (Simulation time: 2 hr 42 min 27 sec) 
Heartbeat CPU 0 instructions: 1960000001 cycles: 840552409 heartbeat IPC: 2.02747 cumulative IPC: 2.06 (Simulation time: 2 hr 43 min 16 sec) 
Heartbeat CPU 0 instructions: 1970000001 cycles: 845421388 heartbeat IPC: 2.05382 cumulative IPC: 2.05996 (Simulation time: 2 hr 44 min 4 sec) 
Heartbeat CPU 0 instructions: 1980000000 cycles: 850286495 heartbeat IPC: 2.05545 cumulative IPC: 2.05993 (Simulation time: 2 hr 44 min 52 sec) 
Heartbeat CPU 0 instructions: 1990000001 cycles: 855057698 heartbeat IPC: 2.09591 cumulative IPC: 2.06017 (Simulation time: 2 hr 45 min 41 sec) 
*** Reached end of trace: traces/444.namd-44B.champsimtrace.xz
Heartbeat CPU 0 instructions: 2000000000 cycles: 859874052 heartbeat IPC: 2.07626 cumulative IPC: 2.06027 (Simulation time: 2 hr 46 min 30 sec) 
Finished CPU 0 instructions: 1500000003 cycles: 728058698 cumulative IPC: 2.06027 (Simulation time: 2 hr 46 min 30 sec) 

ChampSim completed all CPUs

Region of Interest Statistics

CPU 0 cumulative IPC: 2.06027 instructions: 1500000003 cycles: 728058698
cpu0_DTLB TOTAL     ACCESS:  281545382  HIT:  281446988  MISS:      98394
cpu0_DTLB LOAD      ACCESS:  196307500  HIT:  196214681  MISS:      92819
cpu0_DTLB RFO       ACCESS:   85237882  HIT:   85232307  MISS:       5575
cpu0_DTLB PREFETCH  ACCESS:          0  HIT:          0  MISS:          0
cpu0_DTLB WRITEBACK ACCESS:          0  HIT:          0  MISS:          0
cpu0_DTLB TRANSLATION ACCESS:          0  HIT:          0  MISS:          0
cpu0_DTLB PREFETCH  REQUESTED:          0  ISSUED:          0  USEFUL:          0  USELESS:          0
cpu0_DTLB AVERAGE MISS LATENCY: 11.3179 cycles
cpu0_ITLB TOTAL     ACCESS:   41820154  HIT:   41820154  MISS:          0
cpu0_ITLB LOAD      ACCESS:   41820154  HIT:   41820154  MISS:          0
cpu0_ITLB RFO       ACCESS:          0  HIT:          0  MISS:          0
cpu0_ITLB PREFETCH  ACCESS:          0  HIT:          0  MISS:          0
cpu0_ITLB WRITEBACK ACCESS:          0  HIT:          0  MISS:          0
cpu0_ITLB TRANSLATION ACCESS:          0  HIT:          0  MISS:          0
cpu0_ITLB PREFETCH  REQUESTED:          0  ISSUED:          0  USEFUL:          0  USELESS:          0
cpu0_ITLB AVERAGE MISS LATENCY: -nan cycles
cpu0_L1I TOTAL     ACCESS:   41420565  HIT:   41420565  MISS:          0
cpu0_L1I LOAD      ACCESS:   41420565  HIT:   41420565  MISS:          0
cpu0_L1I RFO       ACCESS:          0  HIT:          0  MISS:          0
cpu0_L1I PREFETCH  ACCESS:          0  HIT:          0  MISS:          0
cpu0_L1I WRITEBACK ACCESS:          0  HIT:          0  MISS:          0
cpu0_L1I TRANSLATION ACCESS:          0  HIT:          0  MISS:          0
cpu0_L1I PREFETCH  REQUESTED:          0  ISSUED:          0  USEFUL:          0  USELESS:          0
cpu0_L1I AVERAGE MISS LATENCY: -nan cycles
cpu0_STLB TOTAL     ACCESS:      98394  HIT:      97298  MISS:       1096
cpu0_STLB LOAD      ACCESS:      92819  HIT:      91723  MISS:       1096
cpu0_STLB RFO       ACCESS:       5575  HIT:       5575  MISS:          0
cpu0_STLB PREFETCH  ACCESS:          0  HIT:          0  MISS:          0
cpu0_STLB WRITEBACK ACCESS:          0  HIT:          0  MISS:          0
cpu0_STLB TRANSLATION ACCESS:          0  HIT:          0  MISS:          0
cpu0_STLB PREFETCH  REQUESTED:          0  ISSUED:          0  USEFUL:          0  USELESS:          0
cpu0_STLB AVERAGE MISS LATENCY: 208.086 cycles
cpu0_L1D TOTAL     ACCESS:  361625881  HIT:  353454956  MISS:    8170925
cpu0_L1D LOAD      ACCESS:  219756424  HIT:  211901741  MISS:    7854683
cpu0_L1D RFO       ACCESS:  141868363  HIT:  141552431  MISS:     315932
cpu0_L1D PREFETCH  ACCESS:          0  HIT:          0  MISS:          0
cpu0_L1D WRITEBACK ACCESS:          0  HIT:          0  MISS:          0
cpu0_L1D TRANSLATION ACCESS:       1094  HIT:        784  MISS:        310
cpu0_L1D PREFETCH  REQUESTED:          0  ISSUED:          0  USEFUL:          0  USELESS:          0
cpu0_L1D AVERAGE MISS LATENCY: 12.4889 cycles
cpu0_L2C TOTAL     ACCESS:   10990942  HIT:   10914274  MISS:      76668
cpu0_L2C LOAD      ACCESS:    7854342  HIT:    7777777  MISS:      76565
cpu0_L2C RFO       ACCESS:     315773  HIT:     315677  MISS:         96
cpu0_L2C PREFETCH  ACCESS:          0  HIT:          0  MISS:          0
cpu0_L2C WRITEBACK ACCESS:    2820517  HIT:    2820517  MISS:          0
cpu0_L2C TRANSLATION ACCESS:        310  HIT:        303  MISS:          7
cpu0_L2C PREFETCH  REQUESTED:          0  ISSUED:          0  USEFUL:          0  USELESS:          0
cpu0_L2C AVERAGE MISS LATENCY: 158.293 cycles
LLC TOTAL     ACCESS:     106271  HIT:      35116  MISS:      71155
LLC LOAD      ACCESS:      76565  HIT:       5448  MISS:      71117
LLC RFO       ACCESS:         96  HIT:         66  MISS:         30
LLC PREFETCH  ACCESS:          0  HIT:          0  MISS:          0
LLC WRITEBACK ACCESS:      29603  HIT:      29598  MISS:          5
LLC TRANSLATION ACCESS:          7  HIT:          4  MISS:          3
LLC PREFETCH  REQUESTED:          0  ISSUED:          0  USEFUL:          0  USELESS:          0
LLC AVERAGE MISS LATENCY: 147.93 cycles
~~~~~~~~~~Reuse Distance Profiler output~~~~~~~~~~
0	29879344	10726304
1	19403760	13719568
2	50341808	17755968
3	47690912	20132464
4	33984832	12477168
5	21339440	13051680
6	16740672	10439424
7	20485808	17231520
8	10448064	9009088
9	8819632	5310080
10	8061760	4935776
11	7293824	5535120
12	5531472	4775744
13	6822496	5915360
14	3695472	3261120
15	7705088	7426208
16	4271760	3831936
17	3279888	2019440
18	5027088	1613216
19	5121888	2581632
20	2945536	1231520
21	3451664	2627328
22	6547520	6081280
23	3492112	3123920
24	4368192	3832048
25	2319424	1769296
26	1783536	1221488
27	3490080	2311104
28	1760688	1122400
29	3006496	2812016
30	2860912	1918416
31	2821344	2332688
32	4733840	4190176
33	2577632	2363008
34	2428944	2042448
35	2627904	1845360
36	2024640	1504416
37	2642736	1286080
38	3598224	1003488
39	8029120	3255488
40	7600736	3236352
41	4268688	1540528
42	2581296	1013792
43	2324688	958464
44	2715200	1465488
45	3789264	2519440
46	5261264	3564576
47	11669824	8336992
48	10823344	7900352
49	5079600	3939120
50	3240800	2035456
51	3214320	2524352
52	2988960	2380992
53	1426272	1112320
54	404896	271920
55	166640	69392
56	138704	38352
57	129120	30992
58	120864	25696
59	99472	22592
60	70544	21296
61	59200	15856
62	45360	13040
63	30304	10480
64	62896	14976
66	99648	8512
68	118528	6608
70	61392	9136
72	100848	10992
74	95920	7280
76	34224	7584
78	28016	7712
80	19296	7600
82	25936	11632
84	24608	13056
86	70928	19776
88	80640	29760
90	88752	53616
92	235888	221072
94	673584	661808
96	949984	933472
98	241968	234608
100	81584	76512
102	163120	158848
104	391456	386928
106	22128	19616
108	5648	4752
110	8080	7232
112	9744	8928
114	6960	6416
116	10256	9600
118	13312	12448
120	10288	8752
122	8032	5600
124	7648	5184
126	6688	5152
128	13360	10288
132	16368	15312
136	89168	88320
140	576832	576304
144	920512	919952
148	91360	90800
152	118848	118288
156	384480	384048
160	11712	11344
164	8160	7760
168	8320	7792
172	7216	6752
176	6896	6496
180	8432	8112
184	21504	21120
188	81904	81584
192	108448	108016
196	20304	19904
200	17440	17136
204	15888	15632
208	32000	31728
212	6992	6560
216	6976	6720
220	7104	6752
224	6704	6496
228	9552	9184
232	20368	20144
236	52608	52432
240	73712	73520
244	29840	29632
248	10576	10448
252	17680	17360
256	27600	27008
264	15504	15040
272	17696	17120
280	64992	64544
288	95456	94992
296	27552	27104
304	28352	27856
312	19648	19296
320	20032	19584
328	63712	63136
336	93264	92816
344	31808	31312
352	24656	24224
360	27296	26800
368	22224	21936
376	49712	49184
384	73056	72416
392	24736	24336
400	30624	30176
408	32720	32272
416	25104	24640
424	50896	50496
432	74064	73760
440	28928	28592
448	30208	29664
456	27744	27216
464	35520	35008
472	49744	49376
480	70144	69600
488	31952	31360
496	27968	27488
504	35872	35376
512	85776	84736
528	100912	100096
544	58000	57072
560	94432	93520
576	105680	104672
592	60240	59376
608	95840	94736
624	106480	105472
640	57136	55872
656	86112	85312
672	115312	114176
688	62336	61248
704	90144	89024
720	115584	114880
736	63376	62416
752	81424	80448
768	119008	118064
784	63264	62256
800	82288	81312
816	115472	114592
832	71888	70816
848	77968	76704
864	114576	113792
880	75696	74400
896	77232	76144
912	103136	102000
928	74304	72976
944	73888	73008
960	95632	94752
976	75056	73808
992	69200	68192
1008	86688	85648
1024	134384	132112
1056	139216	137152
1088	141840	139712
1120	122880	120592
1152	123248	121136
1184	136864	134800
1216	109408	107200
1248	120064	117824
1280	128816	126592
1312	100752	98768
1344	129456	127520
1376	121136	119136
1408	101392	99136
1440	125664	123472
1472	111008	108544
1504	103760	101664
1536	116400	114112
1568	108832	106608
1600	109200	106752
1632	109424	107440
1664	109920	107392
1696	104176	101936
1728	102912	100576
1760	112816	110272
1792	100336	97968
1824	103664	101280
1856	110448	108304
1888	94304	92048
1920	107408	105472
1952	103616	101280
1984	97424	95200
2016	108096	105424
2048	196208	191712
2112	198384	193632
2176	200160	194800
2240	199936	195280
2304	194672	190176
2368	189232	184016
2432	191680	186976
2496	193360	188080
2560	191392	185968
2624	182208	177248
2688	185968	180768
2752	180912	175904
2816	184512	179456
2880	181648	176192
2944	175152	170800
3008	172704	168016
3072	173296	168416
3136	173200	168400
3200	169248	164800
3264	168800	163760
3328	167232	162192
3392	168304	163792
3456	163872	158896
3520	163456	158544
3584	162880	158384
3648	163680	158512
3712	159632	154672
3776	158992	154608
3840	157152	151952
3904	155168	150784
3968	156336	151616
4032	156400	152080
4096	307024	298080
4224	306384	297312
4352	307584	298448
4480	302112	292480
4608	304064	295328
4736	296736	287504
4864	294880	286240
4992	287232	278544
5120	293296	284608
5248	283696	275232
5376	286384	277536
5504	282336	273776
5632	282064	273632
5760	276416	268624
5888	278400	269872
6016	273520	265136
6144	268512	260672
6272	266304	258544
6400	263616	256016
6528	265536	257760
6656	270976	262544
6784	263856	255840
6912	263136	255136
7040	263168	255872
7168	261136	253456
7296	257552	250464
7424	254512	247056
7552	252832	245936
7680	251744	244192
7808	243456	236704
7936	246352	239088
8064	245584	238768
8192	485264	470944
8448	479200	466208
8704	471200	457840
8960	463440	449040
9216	448160	435744
9472	438416	425760
9728	438928	426480
9984	429552	417424
10240	425952	413600
10496	416192	405616
10752	410096	398608
11008	401328	390208
11264	403120	392704
11520	392640	381712
11776	379648	369936
12032	373328	363808
12288	364160	354976
12544	352048	342816
12800	342512	333824
13056	341312	331984
13312	332400	323552
13568	325024	315952
13824	315680	307024
14080	303728	295776
14336	298960	291488
14592	289536	282144
14848	283472	276816
15104	270144	263008
15360	259280	252464
15616	257088	250592
15872	252016	246000
16128	238832	233040
16384	467136	455168
16896	433984	423728
17408	403520	393792
17920	370752	362112
18432	347840	339440
18944	327408	319808
19456	301296	294304
19968	284656	278352
20480	257520	251792
20992	234560	229936
21504	217296	212960
22016	202640	198800
22528	183440	179968
23040	162496	159408
23552	152032	148720
24064	146736	144256
24576	128448	126000
25088	121040	118560
25600	114928	112496
26112	108288	106608
26624	104656	102400
27136	98160	96240
27648	89280	87584
28160	80736	79040
28672	78896	77376
29184	74320	72864
29696	72208	70768
30208	67056	65568
30720	66736	65200
31232	64080	62672
31744	61472	59808
32256	59152	57744
32768	119360	116256
33792	108592	105600
34816	103360	100576
35840	96416	93696
36864	91520	89248
37888	84816	82464
38912	83504	81104
39936	81008	78448
40960	76928	74720
41984	70032	68016
43008	68032	65712
44032	66736	64144
45056	61472	59184
46080	56960	55072
47104	56448	54944
48128	52368	50752
49152	49296	47344
50176	47024	45680
51200	44688	43216
52224	44096	42448
53248	41712	40432
54272	41376	40256
55296	38096	36992
56320	37440	36656
57344	34368	33424
58368	32656	31552
59392	31952	30816
60416	31856	30800
61440	31312	30320
62464	28272	27632
63488	26880	26352
64512	25760	24960
65536	49232	47888
67584	46048	44688
69632	41664	40624
71680	40976	39968
73728	38832	38048
75776	35296	34272
77824	32768	31968
79872	30816	30080
81920	29440	28816
83968	27280	26624
86016	25632	25136
88064	24208	23632
90112	23648	23216
92160	20800	20496
94208	21232	20736
96256	19968	19472
98304	20768	20384
100352	18720	18288
102400	17888	17664
104448	16080	15808
106496	15712	15392
108544	15856	15488
110592	14400	14208
112640	15104	14880
114688	13952	13744
116736	13648	13408
118784	12448	12304
120832	12432	12080
122880	12736	12448
124928	11376	11168
126976	11072	10944
129024	11312	11120
131072	20736	20320
135168	18928	18464
139264	19280	18960
143360	17456	17296
147456	16160	15856
151552	15312	15104
155648	14432	14112
159744	13504	13296
163840	13376	13200
167936	12864	12672
172032	10848	10576
176128	11392	11248
180224	10848	10720
184320	10960	10768
188416	10064	9904
192512	9376	9168
196608	9392	9280
200704	7968	7824
204800	8624	8496
208896	7472	7360
212992	7232	7056
217088	7584	7408
221184	6944	6832
225280	6400	6304
229376	6960	6784
233472	7216	7088
237568	6912	6768
241664	5680	5632
245760	5504	5456
249856	5728	5616
253952	6208	6112
258048	5280	5120
262144	9808	9616
270336	9600	9440
278528	8672	8480
286720	8448	8224
294912	8096	8016
303104	7424	7312
311296	7344	7120
319488	6928	6800
327680	6704	6576
335872	5856	5760
344064	6192	6064
352256	6576	6448
360448	4688	4576
368640	5184	5168
376832	4816	4672
385024	4192	4080
393216	3952	3888
401408	4144	4032
409600	3920	3808
417792	3664	3632
425984	3360	3248
434176	3360	3184
442368	3248	3152
450560	2976	2864
458752	2752	2688
466944	2656	2576
475136	2496	2448
483328	2624	2512
491520	2528	2480
499712	2240	2144
507904	1984	1968
516096	2160	2048
524288	4624	4512
540672	3968	3856
557056	3472	3376
573440	3376	3280
589824	3296	3216
606208	2912	2848
622592	2784	2704
638976	2544	2416
655360	2768	2688
671744	2000	1888
688128	2240	2160
704512	1984	1920
720896	1984	1856
737280	2256	2176
753664	1968	1920
770048	1984	1968
786432	1584	1536
802816	1968	1904
819200	1664	1552
835584	1696	1632
851968	1648	1584
868352	1440	1376
884736	1216	1152
901120	1360	1344
917504	880	832
933888	1200	1168
950272	1280	1232
966656	912	864
983040	960	912
999424	960	912
1015808	880	832
1032192	896	896
1048576	1552	1488
1081344	1456	1440
1114112	1264	1216
1146880	1520	1472
1179648	1200	1168
1212416	1040	976
1245184	1120	1056
1277952	1152	1056
1310720	944	928
1343488	1040	1008
1376256	864	784
1409024	752	672
1441792	672	672
1474560	832	800
1507328	624	592
1540096	752	736
1572864	592	528
1605632	560	544
1638400	656	624
1671168	544	544
1703936	640	576
1736704	672	608
1769472	368	336
1802240	480	432
1835008	224	224
1867776	480	432
1900544	416	368
1933312	432	400
1966080	496	464
1998848	400	352
2031616	336	272
2064384	368	320
2097152	560	512
2162688	608	592
2228224	496	448
2293760	496	416
2359296	448	368
2424832	384	352
2490368	416	352
2555904	384	368
2621440	512	368
2686976	528	448
2752512	288	240
2818048	464	432
2883584	368	368
2949120	320	256
3014656	288	240
3080192	224	160
3145728	336	208
3211264	432	304
3276800	256	224
3342336	240	224
3407872	352	288
3473408	400	336
3538944	224	176
3604480	288	208
3670016	176	144
3735552	176	160
3801088	288	240
3866624	352	288
3932160	256	208
3997696	192	176
4063232	304	272
4128768	176	144
4194304	576	464
4325376	464	416
4456448	432	336
4587520	560	496
4718592	448	336
4849664	576	432
4980736	688	608
5111808	640	576
5242880	480	432
5373952	688	592
5505024	592	544
5636096	432	368
5767168	320	288
5898240	432	384
6029312	480	384
6160384	432	352
6291456	320	288
6422528	240	192
6553600	288	272
6684672	272	272
6815744	96	96
6946816	80	80
7077888	32	32
7208960	48	32
7340032	32	32
7471104	64	48
7602176	96	96
7733248	32	32
7864320	32	32
7995392	48	48
8126464	32	32
8257536	48	48
8388608	32	32
8650752	48	48
8912896	144	144
9175040	48	48
9437184	176	176
9699328	80	80
9961472	48	32
10223616	288	224
10485760	224	192
10747904	32	32
11010048	128	128
11272192	144	144
11534336	112	96
11796480	192	176
12058624	80	64
12320768	144	144
12582912	160	144
12845056	48	48
13107200	208	208
13369344	240	240
13631488	32	32
13893632	208	208
14155776	96	96
14417920	112	112
14680064	32	32
14942208	144	128
15204352	144	112
15466496	96	80
15728640	144	128
15990784	80	64
16252928	48	32
16515072	192	192
16777216	432	432
17301504	240	240
17825792	144	144
18350080	112	112
18874368	144	128
19398656	256	256
19922944	192	192
20447232	224	208
20971520	96	80
21495808	96	96
22020096	208	208
22544384	144	144
23068672	96	80
23592960	128	128
24117248	112	112
24641536	64	64
25165824	64	64
25690112	160	160
26214400	160	144
26738688	112	112
27262976	144	128
27787264	96	80
28311552	128	128
28835840	112	112
29360128	48	48
29884416	128	128
30408704	144	144
30932992	80	80
31457280	144	144
31981568	144	144
32505856	256	256
33030144	256	256
33554432	400	400
34603008	432	432
35651584	416	416
36700160	272	272
37748736	256	256
38797312	336	336
39845888	288	288
40894464	128	128
41943040	80	80
42991616	16	16
44040192	64	64
45088768	64	64
46137344	16	16
47185920	0	0
48234496	16	16
49283072	80	80
50331648	0	0
51380224	32	32
52428800	32	16
53477376	80	80
54525952	64	64
55574528	48	48
56623104	32	32
57671680	16	16
58720256	128	128
59768832	0	0
60817408	0	0
61865984	32	32
62914560	32	32
63963136	80	64
65011712	32	32
66060288	0	0
67108864	48	48
69206016	48	48
71303168	48	32
73400320	32	32
75497472	80	80
77594624	64	64
79691776	16	16
81788928	0	0
83886080	224	224
85983232	0	0
88080384	16	16
90177536	112	112
92274688	96	96
94371840	0	0
96468992	16	16
98566144	16	16
100663296	32	32
102760448	112	112
104857600	48	48
106954752	80	80
109051904	16	0
111149056	48	48
113246208	32	32
115343360	16	16
117440512	0	0
119537664	16	16
121634816	0	0
123731968	48	48
125829120	16	16
127926272	0	0
130023424	0	0
132120576	32	32
134217728	64	64
138412032	16	16
142606336	16	16
146800640	16	16
150994944	16	16
155189248	0	0
159383552	0	0
163577856	0	0
167772160	16	16
171966464	208	208
176160768	224	224
180355072	64	64
184549376	48	48
188743680	32	32
192937984	0	0
197132288	16	16
201326592	96	96
205520896	224	208
209715200	352	352
213909504	352	352
218103808	144	144
222298112	144	144
226492416	144	144
230686720	0	0
234881024	0	0
239075328	0	0
243269632	32	32
247463936	48	48
251658240	64	64
255852544	32	32
260046848	32	32
264241152	0	0
268435456	0	0
276824064	0	0
285212672	0	0
293601280	0	0
301989888	0	0
310378496	0	0
318767104	32	32
327155712	16	16
335544320	0	0
343932928	0	0
352321536	0	0
360710144	0	0
369098752	0	0
377487360	0	0
385875968	0	0
394264576	0	0
402653184	0	0
411041792	0	0
419430400	0	0
427819008	16	16
436207616	0	0
444596224	0	0
452984832	16	16
461373440	0	0
469762048	0	0
478150656	0	0
486539264	0	0
494927872	0	0
503316480	0	0
511705088	0	0
520093696	0	0
528482304	0	0
536870912	0	0
553648128	0	0
570425344	0	0
587202560	0	0
603979776	0	0
620756992	0	0
637534208	0	0
654311424	0	0
671088640	0	0
687865856	0	0
704643072	0	0
721420288	0	0
738197504	0	0
754974720	0	0
771751936	0	0
788529152	0	0
805306368	0	0
822083584	0	0
838860800	0	0
855638016	0	0
872415232	0	0
889192448	0	0
905969664	0	0
922746880	0	0
939524096	0	0
956301312	0	0
973078528	0	0
989855744	0	0
1006632960	0	0
1023410176	0	0
1040187392	0	0
1056964608	0	0
1073741824	0	0
1107296256	0	0
1140850688	0	0
1174405120	0	0
1207959552	0	0
1241513984	0	0
1275068416	0	0
1308622848	0	0
1342177280	0	0
1375731712	0	0
1409286144	0	0
1442840576	0	0
1476395008	0	0
1509949440	0	0
1543503872	0	0
1577058304	0	0
1610612736	0	0
1644167168	0	0
1677721600	0	0
1711276032	0	0
1744830464	0	0
1778384896	0	0
1811939328	0	0
1845493760	0	0
1879048192	0	0
1912602624	0	0
1946157056	0	0
1979711488	0	0
2013265920	0	0
2046820352	0	0
2080374784	0	0
2113929216	0	0
2147483648	0	0
2214592512	0	0
2281701376	0	0
2348810240	0	0
2415919104	0	0
2483027968	0	0
2550136832	0	0
2617245696	0	0
2684354560	0	0
2751463424	0	0
2818572288	0	0
2885681152	0	0
2952790016	0	0
3019898880	0	0
3087007744	0	0
3154116608	0	0
3221225472	0	0
3288334336	0	0
3355443200	0	0
3422552064	0	0
3489660928	0	0
3556769792	0	0
3623878656	0	0
3690987520	0	0
3758096384	0	0
3825205248	0	0
3892314112	0	0
3959422976	0	0
4026531840	0	0
4093640704	0	0
4160749568	0	0
4227858432	0	0
~~~~~~~~~~Reuse Distance Profiler output end~~~~~~~~~~

DRAM Statistics
 CHANNEL 0
 RQ ROW_BUFFER_HIT:      14592  ROW_BUFFER_MISS:      56558
 DBUS AVG_CONGESTED_CYCLE:    3.81271
 WQ ROW_BUFFER_HIT:       9320  ROW_BUFFER_MISS:      17232  FULL:          0


CPU 0 Branch Prediction Accuracy: 95.7925% MPKI: 1.44176 Average ROB Occupancy at Mispredict: 103.752
Branch type MPKI
BRANCH_DIRECT_JUMP: 0
BRANCH_INDIRECT: 0
BRANCH_CONDITIONAL: 1.44176
BRANCH_DIRECT_CALL: 0
BRANCH_INDIRECT_CALL: 0
BRANCH_RETURN: 0

