
*** ChampSim Multicore Out-of-Order Simulator ***

Warmup Instructions: 500000000
Simulation Instructions: 1500000000
Number of CPUs: 1
Off-chip DRAM Size: 4 GiB Channels: 1 Width: 64-bit Data Rate: 3200 MT/s

VirtualMemory physical capacity: 8588881920 num_ppages: 2096895
VirtualMemory page size: 4096 log2_page_size: 12

CPU 0 runs traces/444.namd-120B.champsimtrace.xz
CPU 0 Bimodal branch predictor
Basic BTB sets: 1024 ways: 8 indirect buffer size: 4096 RAS size: 64
Initializing LRU.
Initializing LRU.
Initializing LRU.
Initializing LRU.
Initializing rdLRU.
Initializing LRU.
Initializing LRU.
Heartbeat CPU 0 instructions: 10000004 cycles: 2895732 heartbeat IPC: 3.45336 cumulative IPC: 3.45336 (Simulation time: 0 hr 0 min 49 sec) 
Heartbeat CPU 0 instructions: 20000003 cycles: 5876753 heartbeat IPC: 3.35456 cumulative IPC: 3.40324 (Simulation time: 0 hr 1 min 41 sec) 
Heartbeat CPU 0 instructions: 30000001 cycles: 8785850 heartbeat IPC: 3.43749 cumulative IPC: 3.41458 (Simulation time: 0 hr 2 min 32 sec) 
Heartbeat CPU 0 instructions: 40000004 cycles: 11734393 heartbeat IPC: 3.39151 cumulative IPC: 3.40878 (Simulation time: 0 hr 3 min 36 sec) 
Heartbeat CPU 0 instructions: 50000002 cycles: 14598437 heartbeat IPC: 3.49157 cumulative IPC: 3.42502 (Simulation time: 0 hr 4 min 50 sec) 
Heartbeat CPU 0 instructions: 60000001 cycles: 17506078 heartbeat IPC: 3.43921 cumulative IPC: 3.42738 (Simulation time: 0 hr 6 min 4 sec) 
Heartbeat CPU 0 instructions: 70000000 cycles: 20410166 heartbeat IPC: 3.44342 cumulative IPC: 3.42966 (Simulation time: 0 hr 7 min 19 sec) 
Heartbeat CPU 0 instructions: 80000003 cycles: 23346212 heartbeat IPC: 3.40594 cumulative IPC: 3.42668 (Simulation time: 0 hr 8 min 33 sec) 
Heartbeat CPU 0 instructions: 90000002 cycles: 26290369 heartbeat IPC: 3.39656 cumulative IPC: 3.42331 (Simulation time: 0 hr 9 min 45 sec) 
Heartbeat CPU 0 instructions: 100000000 cycles: 29256444 heartbeat IPC: 3.37146 cumulative IPC: 3.41805 (Simulation time: 0 hr 10 min 57 sec) 
Heartbeat CPU 0 instructions: 110000004 cycles: 32143839 heartbeat IPC: 3.46333 cumulative IPC: 3.42212 (Simulation time: 0 hr 12 min 11 sec) 
Heartbeat CPU 0 instructions: 120000001 cycles: 35066543 heartbeat IPC: 3.42149 cumulative IPC: 3.42207 (Simulation time: 0 hr 13 min 14 sec) 
Heartbeat CPU 0 instructions: 130000002 cycles: 37950822 heartbeat IPC: 3.46707 cumulative IPC: 3.42549 (Simulation time: 0 hr 13 min 57 sec) 
Heartbeat CPU 0 instructions: 140000002 cycles: 40907139 heartbeat IPC: 3.38259 cumulative IPC: 3.42239 (Simulation time: 0 hr 14 min 38 sec) 
Heartbeat CPU 0 instructions: 150000004 cycles: 43799116 heartbeat IPC: 3.45784 cumulative IPC: 3.42473 (Simulation time: 0 hr 15 min 18 sec) 
Heartbeat CPU 0 instructions: 160000001 cycles: 46784112 heartbeat IPC: 3.35009 cumulative IPC: 3.41996 (Simulation time: 0 hr 16 min 1 sec) 
Heartbeat CPU 0 instructions: 170000000 cycles: 49715205 heartbeat IPC: 3.4117 cumulative IPC: 3.41948 (Simulation time: 0 hr 17 min 5 sec) 
Heartbeat CPU 0 instructions: 180000001 cycles: 52648546 heartbeat IPC: 3.40908 cumulative IPC: 3.4189 (Simulation time: 0 hr 17 min 44 sec) 
Heartbeat CPU 0 instructions: 190000000 cycles: 55545300 heartbeat IPC: 3.45214 cumulative IPC: 3.42063 (Simulation time: 0 hr 18 min 24 sec) 
Heartbeat CPU 0 instructions: 200000003 cycles: 58431762 heartbeat IPC: 3.46445 cumulative IPC: 3.4228 (Simulation time: 0 hr 19 min 4 sec) 
Heartbeat CPU 0 instructions: 210000004 cycles: 61398994 heartbeat IPC: 3.37014 cumulative IPC: 3.42025 (Simulation time: 0 hr 19 min 44 sec) 
Heartbeat CPU 0 instructions: 220000001 cycles: 64278779 heartbeat IPC: 3.47248 cumulative IPC: 3.42259 (Simulation time: 0 hr 20 min 23 sec) 
Heartbeat CPU 0 instructions: 230000003 cycles: 67256985 heartbeat IPC: 3.35773 cumulative IPC: 3.41972 (Simulation time: 0 hr 21 min 3 sec) 
Heartbeat CPU 0 instructions: 240000004 cycles: 70218933 heartbeat IPC: 3.37616 cumulative IPC: 3.41788 (Simulation time: 0 hr 21 min 56 sec) 
Heartbeat CPU 0 instructions: 250000003 cycles: 73123277 heartbeat IPC: 3.44312 cumulative IPC: 3.41888 (Simulation time: 0 hr 23 min 2 sec) 
Heartbeat CPU 0 instructions: 260000000 cycles: 76031432 heartbeat IPC: 3.43861 cumulative IPC: 3.41964 (Simulation time: 0 hr 23 min 42 sec) 
Heartbeat CPU 0 instructions: 270000002 cycles: 78924557 heartbeat IPC: 3.45647 cumulative IPC: 3.42099 (Simulation time: 0 hr 24 min 35 sec) 
Heartbeat CPU 0 instructions: 280000002 cycles: 81861853 heartbeat IPC: 3.40449 cumulative IPC: 3.4204 (Simulation time: 0 hr 25 min 25 sec) 
Heartbeat CPU 0 instructions: 290000002 cycles: 84766490 heartbeat IPC: 3.44277 cumulative IPC: 3.42116 (Simulation time: 0 hr 26 min 12 sec) 
Heartbeat CPU 0 instructions: 300000002 cycles: 87705609 heartbeat IPC: 3.40238 cumulative IPC: 3.42053 (Simulation time: 0 hr 26 min 52 sec) 
Heartbeat CPU 0 instructions: 310000002 cycles: 90693039 heartbeat IPC: 3.34736 cumulative IPC: 3.41812 (Simulation time: 0 hr 27 min 32 sec) 
Heartbeat CPU 0 instructions: 320000003 cycles: 93588368 heartbeat IPC: 3.45384 cumulative IPC: 3.41923 (Simulation time: 0 hr 28 min 12 sec) 
Heartbeat CPU 0 instructions: 330000003 cycles: 96503033 heartbeat IPC: 3.43093 cumulative IPC: 3.41958 (Simulation time: 0 hr 28 min 53 sec) 
Heartbeat CPU 0 instructions: 340000001 cycles: 99400023 heartbeat IPC: 3.45186 cumulative IPC: 3.42052 (Simulation time: 0 hr 29 min 33 sec) 
Heartbeat CPU 0 instructions: 350000000 cycles: 102351539 heartbeat IPC: 3.38809 cumulative IPC: 3.41959 (Simulation time: 0 hr 30 min 13 sec) 
Heartbeat CPU 0 instructions: 360000000 cycles: 105230649 heartbeat IPC: 3.4733 cumulative IPC: 3.42106 (Simulation time: 0 hr 30 min 53 sec) 
Heartbeat CPU 0 instructions: 370000001 cycles: 108207417 heartbeat IPC: 3.35935 cumulative IPC: 3.41936 (Simulation time: 0 hr 31 min 34 sec) 
Heartbeat CPU 0 instructions: 380000003 cycles: 111131462 heartbeat IPC: 3.41992 cumulative IPC: 3.41937 (Simulation time: 0 hr 32 min 14 sec) 
Heartbeat CPU 0 instructions: 390000002 cycles: 114063750 heartbeat IPC: 3.41031 cumulative IPC: 3.41914 (Simulation time: 0 hr 32 min 55 sec) 
Heartbeat CPU 0 instructions: 400000000 cycles: 116972298 heartbeat IPC: 3.43814 cumulative IPC: 3.41961 (Simulation time: 0 hr 33 min 36 sec) 
Heartbeat CPU 0 instructions: 410000001 cycles: 119931881 heartbeat IPC: 3.37885 cumulative IPC: 3.41861 (Simulation time: 0 hr 34 min 19 sec) 
Heartbeat CPU 0 instructions: 420000001 cycles: 122829090 heartbeat IPC: 3.4516 cumulative IPC: 3.41939 (Simulation time: 0 hr 35 min 11 sec) 
Heartbeat CPU 0 instructions: 430000004 cycles: 125812747 heartbeat IPC: 3.35159 cumulative IPC: 3.41778 (Simulation time: 0 hr 36 min 26 sec) 
Heartbeat CPU 0 instructions: 440000004 cycles: 128705686 heartbeat IPC: 3.45669 cumulative IPC: 3.41865 (Simulation time: 0 hr 37 min 40 sec) 
Heartbeat CPU 0 instructions: 450000000 cycles: 131653988 heartbeat IPC: 3.39178 cumulative IPC: 3.41805 (Simulation time: 0 hr 38 min 23 sec) 
Heartbeat CPU 0 instructions: 460000004 cycles: 134514233 heartbeat IPC: 3.49621 cumulative IPC: 3.41971 (Simulation time: 0 hr 39 min 2 sec) 
Heartbeat CPU 0 instructions: 470000002 cycles: 137418530 heartbeat IPC: 3.44317 cumulative IPC: 3.42021 (Simulation time: 0 hr 39 min 42 sec) 
Heartbeat CPU 0 instructions: 480000003 cycles: 140341807 heartbeat IPC: 3.42082 cumulative IPC: 3.42022 (Simulation time: 0 hr 40 min 21 sec) 
Heartbeat CPU 0 instructions: 490000004 cycles: 143260396 heartbeat IPC: 3.42631 cumulative IPC: 3.42035 (Simulation time: 0 hr 41 min 1 sec) 
Heartbeat CPU 0 instructions: 500000001 cycles: 146248271 heartbeat IPC: 3.34686 cumulative IPC: 3.41884 (Simulation time: 0 hr 41 min 41 sec) 

Warmup complete CPU 0 instructions: 500000001 cycles: 146248271 (Simulation time: 0 hr 41 min 41 sec) 

Heartbeat CPU 0 instructions: 510000000 cycles: 150248288 heartbeat IPC: 2.49999 cumulative IPC: 2.49999 (Simulation time: 0 hr 42 min 19 sec) 
Heartbeat CPU 0 instructions: 520000001 cycles: 154107560 heartbeat IPC: 2.59116 cumulative IPC: 2.54476 (Simulation time: 0 hr 42 min 56 sec) 
Heartbeat CPU 0 instructions: 530000003 cycles: 158235950 heartbeat IPC: 2.42225 cumulative IPC: 2.50257 (Simulation time: 0 hr 43 min 37 sec) 
Heartbeat CPU 0 instructions: 540000000 cycles: 162437385 heartbeat IPC: 2.38014 cumulative IPC: 2.4708 (Simulation time: 0 hr 44 min 17 sec) 
Heartbeat CPU 0 instructions: 550000002 cycles: 166260211 heartbeat IPC: 2.61587 cumulative IPC: 2.49851 (Simulation time: 0 hr 44 min 53 sec) 
Heartbeat CPU 0 instructions: 560000002 cycles: 170433544 heartbeat IPC: 2.39617 cumulative IPC: 2.48085 (Simulation time: 0 hr 45 min 35 sec) 
Heartbeat CPU 0 instructions: 570000000 cycles: 174172768 heartbeat IPC: 2.67435 cumulative IPC: 2.50676 (Simulation time: 0 hr 46 min 11 sec) 
Heartbeat CPU 0 instructions: 580000001 cycles: 177974014 heartbeat IPC: 2.63072 cumulative IPC: 2.52161 (Simulation time: 0 hr 46 min 49 sec) 
Heartbeat CPU 0 instructions: 590000002 cycles: 181785088 heartbeat IPC: 2.62393 cumulative IPC: 2.53258 (Simulation time: 0 hr 47 min 28 sec) 
Heartbeat CPU 0 instructions: 600000003 cycles: 185899312 heartbeat IPC: 2.43059 cumulative IPC: 2.522 (Simulation time: 0 hr 48 min 21 sec) 
Heartbeat CPU 0 instructions: 610000002 cycles: 190081392 heartbeat IPC: 2.39115 cumulative IPC: 2.50952 (Simulation time: 0 hr 49 min 3 sec) 
Heartbeat CPU 0 instructions: 620000001 cycles: 194098398 heartbeat IPC: 2.48942 cumulative IPC: 2.50783 (Simulation time: 0 hr 49 min 43 sec) 
Heartbeat CPU 0 instructions: 630000003 cycles: 198000503 heartbeat IPC: 2.56272 cumulative IPC: 2.51197 (Simulation time: 0 hr 50 min 23 sec) 
Heartbeat CPU 0 instructions: 640000003 cycles: 201959283 heartbeat IPC: 2.52603 cumulative IPC: 2.51297 (Simulation time: 0 hr 51 min 2 sec) 
Heartbeat CPU 0 instructions: 650000004 cycles: 205696829 heartbeat IPC: 2.67555 cumulative IPC: 2.52319 (Simulation time: 0 hr 51 min 40 sec) 
Heartbeat CPU 0 instructions: 660000003 cycles: 209673831 heartbeat IPC: 2.51446 cumulative IPC: 2.52264 (Simulation time: 0 hr 52 min 21 sec) 
Heartbeat CPU 0 instructions: 670000000 cycles: 213426890 heartbeat IPC: 2.66449 cumulative IPC: 2.53057 (Simulation time: 0 hr 52 min 59 sec) 
Heartbeat CPU 0 instructions: 680000001 cycles: 217646642 heartbeat IPC: 2.36981 cumulative IPC: 2.52107 (Simulation time: 0 hr 53 min 41 sec) 
Heartbeat CPU 0 instructions: 690000004 cycles: 221734332 heartbeat IPC: 2.44637 cumulative IPC: 2.51702 (Simulation time: 0 hr 54 min 21 sec) 
Heartbeat CPU 0 instructions: 700000002 cycles: 225567781 heartbeat IPC: 2.60862 cumulative IPC: 2.52145 (Simulation time: 0 hr 54 min 59 sec) 
Heartbeat CPU 0 instructions: 710000001 cycles: 229630040 heartbeat IPC: 2.46168 cumulative IPC: 2.51854 (Simulation time: 0 hr 55 min 40 sec) 
Heartbeat CPU 0 instructions: 720000000 cycles: 233475956 heartbeat IPC: 2.60016 cumulative IPC: 2.52214 (Simulation time: 0 hr 56 min 19 sec) 
Heartbeat CPU 0 instructions: 730000004 cycles: 237206022 heartbeat IPC: 2.68092 cumulative IPC: 2.52865 (Simulation time: 0 hr 56 min 56 sec) 
Heartbeat CPU 0 instructions: 740000002 cycles: 241276410 heartbeat IPC: 2.45677 cumulative IPC: 2.52557 (Simulation time: 0 hr 57 min 38 sec) 
Heartbeat CPU 0 instructions: 750000001 cycles: 245218557 heartbeat IPC: 2.53669 cumulative IPC: 2.52601 (Simulation time: 0 hr 58 min 17 sec) 
Heartbeat CPU 0 instructions: 760000004 cycles: 249390808 heartbeat IPC: 2.39679 cumulative IPC: 2.52078 (Simulation time: 0 hr 58 min 59 sec) 
Heartbeat CPU 0 instructions: 770000002 cycles: 253404922 heartbeat IPC: 2.49121 cumulative IPC: 2.51968 (Simulation time: 0 hr 59 min 38 sec) 
Heartbeat CPU 0 instructions: 780000001 cycles: 257448947 heartbeat IPC: 2.47278 cumulative IPC: 2.51797 (Simulation time: 1 hr 0 min 20 sec) 
Heartbeat CPU 0 instructions: 790000004 cycles: 261351393 heartbeat IPC: 2.5625 cumulative IPC: 2.51948 (Simulation time: 1 hr 0 min 59 sec) 
Heartbeat CPU 0 instructions: 800000000 cycles: 265257727 heartbeat IPC: 2.55994 cumulative IPC: 2.52081 (Simulation time: 1 hr 1 min 38 sec) 
Heartbeat CPU 0 instructions: 810000002 cycles: 269485112 heartbeat IPC: 2.36553 cumulative IPC: 2.51548 (Simulation time: 1 hr 2 min 29 sec) 
Heartbeat CPU 0 instructions: 820000000 cycles: 273559396 heartbeat IPC: 2.45442 cumulative IPC: 2.51353 (Simulation time: 1 hr 3 min 8 sec) 
Heartbeat CPU 0 instructions: 830000003 cycles: 277698742 heartbeat IPC: 2.41584 cumulative IPC: 2.51045 (Simulation time: 1 hr 3 min 47 sec) 
Heartbeat CPU 0 instructions: 840000003 cycles: 281772919 heartbeat IPC: 2.45448 cumulative IPC: 2.50877 (Simulation time: 1 hr 4 min 26 sec) 
Heartbeat CPU 0 instructions: 850000000 cycles: 285691637 heartbeat IPC: 2.55185 cumulative IPC: 2.50998 (Simulation time: 1 hr 5 min 3 sec) 
Heartbeat CPU 0 instructions: 860000001 cycles: 289772295 heartbeat IPC: 2.45059 cumulative IPC: 2.50829 (Simulation time: 1 hr 5 min 40 sec) 
Heartbeat CPU 0 instructions: 870000000 cycles: 293924142 heartbeat IPC: 2.40857 cumulative IPC: 2.50549 (Simulation time: 1 hr 6 min 18 sec) 
Heartbeat CPU 0 instructions: 880000000 cycles: 298198719 heartbeat IPC: 2.33941 cumulative IPC: 2.50082 (Simulation time: 1 hr 6 min 57 sec) 
Heartbeat CPU 0 instructions: 890000000 cycles: 302544171 heartbeat IPC: 2.30126 cumulative IPC: 2.49527 (Simulation time: 1 hr 7 min 37 sec) 
Heartbeat CPU 0 instructions: 900000000 cycles: 306804727 heartbeat IPC: 2.34711 cumulative IPC: 2.49134 (Simulation time: 1 hr 8 min 17 sec) 
Heartbeat CPU 0 instructions: 910000002 cycles: 310799941 heartbeat IPC: 2.503 cumulative IPC: 2.49162 (Simulation time: 1 hr 8 min 54 sec) 
Heartbeat CPU 0 instructions: 920000003 cycles: 314942415 heartbeat IPC: 2.41402 cumulative IPC: 2.48971 (Simulation time: 1 hr 9 min 32 sec) 
Heartbeat CPU 0 instructions: 930000000 cycles: 318678085 heartbeat IPC: 2.6769 cumulative IPC: 2.49377 (Simulation time: 1 hr 10 min 7 sec) 
Heartbeat CPU 0 instructions: 940000001 cycles: 322855915 heartbeat IPC: 2.39359 cumulative IPC: 2.4914 (Simulation time: 1 hr 10 min 47 sec) 
Heartbeat CPU 0 instructions: 950000002 cycles: 326790638 heartbeat IPC: 2.54148 cumulative IPC: 2.49249 (Simulation time: 1 hr 11 min 24 sec) 
Heartbeat CPU 0 instructions: 960000000 cycles: 331022011 heartbeat IPC: 2.3633 cumulative IPC: 2.48953 (Simulation time: 1 hr 12 min 4 sec) 
Heartbeat CPU 0 instructions: 970000001 cycles: 335284870 heartbeat IPC: 2.34584 cumulative IPC: 2.48629 (Simulation time: 1 hr 13 min 6 sec) 
Heartbeat CPU 0 instructions: 980000000 cycles: 339114163 heartbeat IPC: 2.61145 cumulative IPC: 2.48878 (Simulation time: 1 hr 14 min 7 sec) 
Heartbeat CPU 0 instructions: 990000001 cycles: 343198075 heartbeat IPC: 2.44863 cumulative IPC: 2.48794 (Simulation time: 1 hr 15 min 14 sec) 
Heartbeat CPU 0 instructions: 1000000000 cycles: 346885947 heartbeat IPC: 2.71159 cumulative IPC: 2.49205 (Simulation time: 1 hr 16 min 13 sec) 
Heartbeat CPU 0 instructions: 1010000003 cycles: 350764294 heartbeat IPC: 2.57842 cumulative IPC: 2.49369 (Simulation time: 1 hr 16 min 56 sec) 
Heartbeat CPU 0 instructions: 1020000003 cycles: 354620141 heartbeat IPC: 2.59346 cumulative IPC: 2.49554 (Simulation time: 1 hr 17 min 36 sec) 
Heartbeat CPU 0 instructions: 1030000001 cycles: 358731628 heartbeat IPC: 2.43221 cumulative IPC: 2.49431 (Simulation time: 1 hr 18 min 17 sec) 
Heartbeat CPU 0 instructions: 1040000000 cycles: 362906613 heartbeat IPC: 2.39522 cumulative IPC: 2.4924 (Simulation time: 1 hr 18 min 58 sec) 
Heartbeat CPU 0 instructions: 1050000000 cycles: 366780430 heartbeat IPC: 2.58143 cumulative IPC: 2.49397 (Simulation time: 1 hr 19 min 36 sec) 
Heartbeat CPU 0 instructions: 1060000000 cycles: 370872075 heartbeat IPC: 2.444 cumulative IPC: 2.49306 (Simulation time: 1 hr 20 min 17 sec) 
Heartbeat CPU 0 instructions: 1070000004 cycles: 374741478 heartbeat IPC: 2.58438 cumulative IPC: 2.4946 (Simulation time: 1 hr 20 min 56 sec) 
Heartbeat CPU 0 instructions: 1080000003 cycles: 378359028 heartbeat IPC: 2.7643 cumulative IPC: 2.49881 (Simulation time: 1 hr 21 min 33 sec) 
Heartbeat CPU 0 instructions: 1090000000 cycles: 382446525 heartbeat IPC: 2.44648 cumulative IPC: 2.4979 (Simulation time: 1 hr 22 min 15 sec) 
Heartbeat CPU 0 instructions: 1100000003 cycles: 386329738 heartbeat IPC: 2.57519 cumulative IPC: 2.49915 (Simulation time: 1 hr 22 min 54 sec) 
Heartbeat CPU 0 instructions: 1110000001 cycles: 390482301 heartbeat IPC: 2.40815 cumulative IPC: 2.4976 (Simulation time: 1 hr 23 min 37 sec) 
Heartbeat CPU 0 instructions: 1120000000 cycles: 394604534 heartbeat IPC: 2.42587 cumulative IPC: 2.49641 (Simulation time: 1 hr 24 min 18 sec) 
Heartbeat CPU 0 instructions: 1130000003 cycles: 398508598 heartbeat IPC: 2.56143 cumulative IPC: 2.49742 (Simulation time: 1 hr 24 min 59 sec) 
Heartbeat CPU 0 instructions: 1140000003 cycles: 402466002 heartbeat IPC: 2.52691 cumulative IPC: 2.49788 (Simulation time: 1 hr 25 min 40 sec) 
Heartbeat CPU 0 instructions: 1150000001 cycles: 406174382 heartbeat IPC: 2.69659 cumulative IPC: 2.50071 (Simulation time: 1 hr 26 min 18 sec) 
Heartbeat CPU 0 instructions: 1160000004 cycles: 410191247 heartbeat IPC: 2.4895 cumulative IPC: 2.50054 (Simulation time: 1 hr 27 min 1 sec) 
Heartbeat CPU 0 instructions: 1170000002 cycles: 414130189 heartbeat IPC: 2.53875 cumulative IPC: 2.5011 (Simulation time: 1 hr 27 min 54 sec) 
Heartbeat CPU 0 instructions: 1180000003 cycles: 418393697 heartbeat IPC: 2.34549 cumulative IPC: 2.49866 (Simulation time: 1 hr 28 min 46 sec) 
Heartbeat CPU 0 instructions: 1190000000 cycles: 422602328 heartbeat IPC: 2.37607 cumulative IPC: 2.4968 (Simulation time: 1 hr 29 min 26 sec) 
Heartbeat CPU 0 instructions: 1200000004 cycles: 426531526 heartbeat IPC: 2.54505 cumulative IPC: 2.49747 (Simulation time: 1 hr 30 min 5 sec) 
Heartbeat CPU 0 instructions: 1210000002 cycles: 430559810 heartbeat IPC: 2.48245 cumulative IPC: 2.49726 (Simulation time: 1 hr 30 min 45 sec) 
Heartbeat CPU 0 instructions: 1220000001 cycles: 434403180 heartbeat IPC: 2.60188 cumulative IPC: 2.49866 (Simulation time: 1 hr 31 min 24 sec) 
Heartbeat CPU 0 instructions: 1230000004 cycles: 438689933 heartbeat IPC: 2.33277 cumulative IPC: 2.49622 (Simulation time: 1 hr 32 min 34 sec) 
Heartbeat CPU 0 instructions: 1240000002 cycles: 442676450 heartbeat IPC: 2.50845 cumulative IPC: 2.49639 (Simulation time: 1 hr 33 min 41 sec) 
Heartbeat CPU 0 instructions: 1250000000 cycles: 446988174 heartbeat IPC: 2.31926 cumulative IPC: 2.49385 (Simulation time: 1 hr 34 min 55 sec) 
Heartbeat CPU 0 instructions: 1260000001 cycles: 450865849 heartbeat IPC: 2.57887 cumulative IPC: 2.49493 (Simulation time: 1 hr 35 min 56 sec) 
Heartbeat CPU 0 instructions: 1270000000 cycles: 454874509 heartbeat IPC: 2.4946 cumulative IPC: 2.49493 (Simulation time: 1 hr 36 min 33 sec) 
Heartbeat CPU 0 instructions: 1280000004 cycles: 458882813 heartbeat IPC: 2.49482 cumulative IPC: 2.49493 (Simulation time: 1 hr 37 min 9 sec) 
Heartbeat CPU 0 instructions: 1290000000 cycles: 463167936 heartbeat IPC: 2.33365 cumulative IPC: 2.49275 (Simulation time: 1 hr 37 min 49 sec) 
Heartbeat CPU 0 instructions: 1300000003 cycles: 467368341 heartbeat IPC: 2.38072 cumulative IPC: 2.49128 (Simulation time: 1 hr 38 min 27 sec) 
Heartbeat CPU 0 instructions: 1310000000 cycles: 471788735 heartbeat IPC: 2.26224 cumulative IPC: 2.48817 (Simulation time: 1 hr 39 min 8 sec) 
Heartbeat CPU 0 instructions: 1320000002 cycles: 476093233 heartbeat IPC: 2.32315 cumulative IPC: 2.48602 (Simulation time: 1 hr 39 min 48 sec) 
Heartbeat CPU 0 instructions: 1330000000 cycles: 480048838 heartbeat IPC: 2.52806 cumulative IPC: 2.48651 (Simulation time: 1 hr 40 min 24 sec) 
Heartbeat CPU 0 instructions: 1340000002 cycles: 484301429 heartbeat IPC: 2.35151 cumulative IPC: 2.48482 (Simulation time: 1 hr 41 min 3 sec) 
Heartbeat CPU 0 instructions: 1350000001 cycles: 488145073 heartbeat IPC: 2.6017 cumulative IPC: 2.48613 (Simulation time: 1 hr 41 min 39 sec) 
Heartbeat CPU 0 instructions: 1360000003 cycles: 492333926 heartbeat IPC: 2.38729 cumulative IPC: 2.48493 (Simulation time: 1 hr 42 min 19 sec) 
Heartbeat CPU 0 instructions: 1370000000 cycles: 496358819 heartbeat IPC: 2.48454 cumulative IPC: 2.48493 (Simulation time: 1 hr 42 min 56 sec) 
Heartbeat CPU 0 instructions: 1380000000 cycles: 500559236 heartbeat IPC: 2.38072 cumulative IPC: 2.48369 (Simulation time: 1 hr 43 min 36 sec) 
Heartbeat CPU 0 instructions: 1390000002 cycles: 504675816 heartbeat IPC: 2.4292 cumulative IPC: 2.48307 (Simulation time: 1 hr 44 min 14 sec) 
Heartbeat CPU 0 instructions: 1400000002 cycles: 508773553 heartbeat IPC: 2.44037 cumulative IPC: 2.48259 (Simulation time: 1 hr 45 min 8 sec) 
Heartbeat CPU 0 instructions: 1410000004 cycles: 512669499 heartbeat IPC: 2.56677 cumulative IPC: 2.48348 (Simulation time: 1 hr 45 min 45 sec) 
Heartbeat CPU 0 instructions: 1420000004 cycles: 516385863 heartbeat IPC: 2.6908 cumulative IPC: 2.48556 (Simulation time: 1 hr 46 min 28 sec) 
Heartbeat CPU 0 instructions: 1430000003 cycles: 520443396 heartbeat IPC: 2.46455 cumulative IPC: 2.48533 (Simulation time: 1 hr 47 min 8 sec) 
Heartbeat CPU 0 instructions: 1440000002 cycles: 524591264 heartbeat IPC: 2.41088 cumulative IPC: 2.48452 (Simulation time: 1 hr 47 min 47 sec) 
Heartbeat CPU 0 instructions: 1450000000 cycles: 528835895 heartbeat IPC: 2.35592 cumulative IPC: 2.48309 (Simulation time: 1 hr 48 min 26 sec) 
Heartbeat CPU 0 instructions: 1460000001 cycles: 532855322 heartbeat IPC: 2.48792 cumulative IPC: 2.48314 (Simulation time: 1 hr 49 min 4 sec) 
Heartbeat CPU 0 instructions: 1470000001 cycles: 536873151 heartbeat IPC: 2.48891 cumulative IPC: 2.4832 (Simulation time: 1 hr 49 min 43 sec) 
Heartbeat CPU 0 instructions: 1480000003 cycles: 540848394 heartbeat IPC: 2.51557 cumulative IPC: 2.48353 (Simulation time: 1 hr 50 min 21 sec) 
Heartbeat CPU 0 instructions: 1490000003 cycles: 544523136 heartbeat IPC: 2.72128 cumulative IPC: 2.48572 (Simulation time: 1 hr 50 min 56 sec) 
Heartbeat CPU 0 instructions: 1500000003 cycles: 548616433 heartbeat IPC: 2.44302 cumulative IPC: 2.48529 (Simulation time: 1 hr 51 min 36 sec) 
Heartbeat CPU 0 instructions: 1510000003 cycles: 552698144 heartbeat IPC: 2.44995 cumulative IPC: 2.48493 (Simulation time: 1 hr 52 min 14 sec) 
Heartbeat CPU 0 instructions: 1520000003 cycles: 556939739 heartbeat IPC: 2.3576 cumulative IPC: 2.48362 (Simulation time: 1 hr 52 min 53 sec) 
Heartbeat CPU 0 instructions: 1530000001 cycles: 561046507 heartbeat IPC: 2.435 cumulative IPC: 2.48313 (Simulation time: 1 hr 53 min 40 sec) 
Heartbeat CPU 0 instructions: 1540000003 cycles: 564971461 heartbeat IPC: 2.5478 cumulative IPC: 2.48374 (Simulation time: 1 hr 54 min 35 sec) 
Heartbeat CPU 0 instructions: 1550000003 cycles: 568911411 heartbeat IPC: 2.5381 cumulative IPC: 2.48425 (Simulation time: 1 hr 55 min 20 sec) 
Heartbeat CPU 0 instructions: 1560000000 cycles: 572668249 heartbeat IPC: 2.66181 cumulative IPC: 2.48581 (Simulation time: 1 hr 55 min 55 sec) 
Heartbeat CPU 0 instructions: 1570000000 cycles: 576790400 heartbeat IPC: 2.42592 cumulative IPC: 2.48524 (Simulation time: 1 hr 56 min 35 sec) 
Heartbeat CPU 0 instructions: 1580000002 cycles: 580913211 heartbeat IPC: 2.42553 cumulative IPC: 2.48467 (Simulation time: 1 hr 57 min 14 sec) 
Heartbeat CPU 0 instructions: 1590000002 cycles: 585214766 heartbeat IPC: 2.32474 cumulative IPC: 2.48311 (Simulation time: 1 hr 57 min 54 sec) 
Heartbeat CPU 0 instructions: 1600000002 cycles: 589280212 heartbeat IPC: 2.45975 cumulative IPC: 2.48289 (Simulation time: 1 hr 58 min 32 sec) 
Heartbeat CPU 0 instructions: 1610000000 cycles: 593352856 heartbeat IPC: 2.45541 cumulative IPC: 2.48264 (Simulation time: 1 hr 59 min 12 sec) 
Heartbeat CPU 0 instructions: 1620000001 cycles: 597250723 heartbeat IPC: 2.56551 cumulative IPC: 2.48336 (Simulation time: 1 hr 59 min 48 sec) 
Heartbeat CPU 0 instructions: 1630000002 cycles: 601284152 heartbeat IPC: 2.47928 cumulative IPC: 2.48332 (Simulation time: 2 hr 0 min 25 sec) 
Heartbeat CPU 0 instructions: 1640000001 cycles: 605458762 heartbeat IPC: 2.39543 cumulative IPC: 2.48252 (Simulation time: 2 hr 1 min 4 sec) 
Heartbeat CPU 0 instructions: 1650000003 cycles: 609627133 heartbeat IPC: 2.39902 cumulative IPC: 2.48177 (Simulation time: 2 hr 1 min 42 sec) 
Heartbeat CPU 0 instructions: 1660000003 cycles: 613745162 heartbeat IPC: 2.42835 cumulative IPC: 2.4813 (Simulation time: 2 hr 2 min 20 sec) 
Heartbeat CPU 0 instructions: 1670000000 cycles: 617813766 heartbeat IPC: 2.45784 cumulative IPC: 2.4811 (Simulation time: 2 hr 2 min 58 sec) 
Heartbeat CPU 0 instructions: 1680000001 cycles: 621795467 heartbeat IPC: 2.51149 cumulative IPC: 2.48135 (Simulation time: 2 hr 3 min 34 sec) 
Heartbeat CPU 0 instructions: 1690000004 cycles: 625988798 heartbeat IPC: 2.38474 cumulative IPC: 2.48051 (Simulation time: 2 hr 4 min 13 sec) 
Heartbeat CPU 0 instructions: 1700000001 cycles: 630133234 heartbeat IPC: 2.41287 cumulative IPC: 2.47993 (Simulation time: 2 hr 4 min 50 sec) 
Heartbeat CPU 0 instructions: 1710000001 cycles: 634505430 heartbeat IPC: 2.28718 cumulative IPC: 2.4782 (Simulation time: 2 hr 5 min 31 sec) 
Heartbeat CPU 0 instructions: 1720000003 cycles: 638703194 heartbeat IPC: 2.38222 cumulative IPC: 2.47738 (Simulation time: 2 hr 6 min 11 sec) 
Heartbeat CPU 0 instructions: 1730000000 cycles: 642834945 heartbeat IPC: 2.42028 cumulative IPC: 2.47691 (Simulation time: 2 hr 6 min 52 sec) 
Heartbeat CPU 0 instructions: 1740000001 cycles: 646888958 heartbeat IPC: 2.46669 cumulative IPC: 2.47683 (Simulation time: 2 hr 7 min 35 sec) 
Heartbeat CPU 0 instructions: 1750000004 cycles: 651005666 heartbeat IPC: 2.42913 cumulative IPC: 2.47644 (Simulation time: 2 hr 8 min 13 sec) 
Heartbeat CPU 0 instructions: 1760000001 cycles: 655151789 heartbeat IPC: 2.41189 cumulative IPC: 2.47591 (Simulation time: 2 hr 8 min 51 sec) 
Heartbeat CPU 0 instructions: 1770000001 cycles: 659408721 heartbeat IPC: 2.34911 cumulative IPC: 2.47486 (Simulation time: 2 hr 9 min 31 sec) 
Heartbeat CPU 0 instructions: 1780000001 cycles: 663343322 heartbeat IPC: 2.54155 cumulative IPC: 2.47537 (Simulation time: 2 hr 10 min 7 sec) 
Heartbeat CPU 0 instructions: 1790000003 cycles: 667442897 heartbeat IPC: 2.43928 cumulative IPC: 2.47508 (Simulation time: 2 hr 10 min 45 sec) 
Heartbeat CPU 0 instructions: 1800000004 cycles: 671305915 heartbeat IPC: 2.58865 cumulative IPC: 2.47592 (Simulation time: 2 hr 11 min 21 sec) 
Heartbeat CPU 0 instructions: 1810000003 cycles: 675445923 heartbeat IPC: 2.41545 cumulative IPC: 2.47545 (Simulation time: 2 hr 12 min 0 sec) 
Heartbeat CPU 0 instructions: 1820000002 cycles: 679697776 heartbeat IPC: 2.35192 cumulative IPC: 2.47446 (Simulation time: 2 hr 12 min 39 sec) 
Heartbeat CPU 0 instructions: 1830000003 cycles: 683591338 heartbeat IPC: 2.56834 cumulative IPC: 2.47514 (Simulation time: 2 hr 13 min 16 sec) 
Heartbeat CPU 0 instructions: 1840000003 cycles: 687563678 heartbeat IPC: 2.51741 cumulative IPC: 2.47545 (Simulation time: 2 hr 13 min 53 sec) 
Heartbeat CPU 0 instructions: 1850000003 cycles: 691506995 heartbeat IPC: 2.53594 cumulative IPC: 2.47589 (Simulation time: 2 hr 14 min 30 sec) 
Heartbeat CPU 0 instructions: 1860000000 cycles: 695694509 heartbeat IPC: 2.38805 cumulative IPC: 2.47522 (Simulation time: 2 hr 15 min 9 sec) 
Heartbeat CPU 0 instructions: 1870000004 cycles: 699934064 heartbeat IPC: 2.35874 cumulative IPC: 2.47433 (Simulation time: 2 hr 15 min 48 sec) 
Heartbeat CPU 0 instructions: 1880000004 cycles: 703794809 heartbeat IPC: 2.59017 cumulative IPC: 2.47513 (Simulation time: 2 hr 16 min 25 sec) 
Heartbeat CPU 0 instructions: 1890000002 cycles: 707855365 heartbeat IPC: 2.46272 cumulative IPC: 2.47504 (Simulation time: 2 hr 17 min 4 sec) 
Heartbeat CPU 0 instructions: 1900000003 cycles: 711707475 heartbeat IPC: 2.59598 cumulative IPC: 2.47586 (Simulation time: 2 hr 17 min 40 sec) 
Heartbeat CPU 0 instructions: 1910000003 cycles: 715965145 heartbeat IPC: 2.3487 cumulative IPC: 2.47491 (Simulation time: 2 hr 18 min 27 sec) 
Heartbeat CPU 0 instructions: 1920000004 cycles: 720057261 heartbeat IPC: 2.44372 cumulative IPC: 2.47469 (Simulation time: 2 hr 19 min 8 sec) 
Heartbeat CPU 0 instructions: 1930000002 cycles: 724048135 heartbeat IPC: 2.50572 cumulative IPC: 2.47491 (Simulation time: 2 hr 19 min 53 sec) 
Heartbeat CPU 0 instructions: 1940000002 cycles: 728242197 heartbeat IPC: 2.38432 cumulative IPC: 2.47425 (Simulation time: 2 hr 20 min 32 sec) 
Heartbeat CPU 0 instructions: 1950000000 cycles: 732180974 heartbeat IPC: 2.53886 cumulative IPC: 2.47469 (Simulation time: 2 hr 21 min 9 sec) 
Heartbeat CPU 0 instructions: 1960000000 cycles: 736406155 heartbeat IPC: 2.36676 cumulative IPC: 2.47391 (Simulation time: 2 hr 21 min 48 sec) 
Heartbeat CPU 0 instructions: 1970000003 cycles: 740317522 heartbeat IPC: 2.55665 cumulative IPC: 2.47446 (Simulation time: 2 hr 22 min 24 sec) 
Heartbeat CPU 0 instructions: 1980000003 cycles: 744359892 heartbeat IPC: 2.4738 cumulative IPC: 2.47445 (Simulation time: 2 hr 23 min 21 sec) 
Heartbeat CPU 0 instructions: 1990000003 cycles: 748503154 heartbeat IPC: 2.41356 cumulative IPC: 2.47404 (Simulation time: 2 hr 24 min 31 sec) 
*** Reached end of trace: traces/444.namd-120B.champsimtrace.xz
Heartbeat CPU 0 instructions: 2000000000 cycles: 752849001 heartbeat IPC: 2.30105 cumulative IPC: 2.4728 (Simulation time: 2 hr 25 min 44 sec) 
Finished CPU 0 instructions: 1500000004 cycles: 606600734 cumulative IPC: 2.4728 (Simulation time: 2 hr 25 min 44 sec) 

ChampSim completed all CPUs

Region of Interest Statistics

CPU 0 cumulative IPC: 2.4728 instructions: 1500000004 cycles: 606600734
cpu0_DTLB TOTAL     ACCESS:  290582418  HIT:  290463686  MISS:     118732
cpu0_DTLB LOAD      ACCESS:  255884924  HIT:  255768465  MISS:     116459
cpu0_DTLB RFO       ACCESS:   34697494  HIT:   34695221  MISS:       2273
cpu0_DTLB PREFETCH  ACCESS:          0  HIT:          0  MISS:          0
cpu0_DTLB WRITEBACK ACCESS:          0  HIT:          0  MISS:          0
cpu0_DTLB TRANSLATION ACCESS:          0  HIT:          0  MISS:          0
cpu0_DTLB PREFETCH  REQUESTED:          0  ISSUED:          0  USEFUL:          0  USELESS:          0
cpu0_DTLB AVERAGE MISS LATENCY: 10.4835 cycles
cpu0_ITLB TOTAL     ACCESS:   50311208  HIT:   50311208  MISS:          0
cpu0_ITLB LOAD      ACCESS:   50311208  HIT:   50311208  MISS:          0
cpu0_ITLB RFO       ACCESS:          0  HIT:          0  MISS:          0
cpu0_ITLB PREFETCH  ACCESS:          0  HIT:          0  MISS:          0
cpu0_ITLB WRITEBACK ACCESS:          0  HIT:          0  MISS:          0
cpu0_ITLB TRANSLATION ACCESS:          0  HIT:          0  MISS:          0
cpu0_ITLB PREFETCH  REQUESTED:          0  ISSUED:          0  USEFUL:          0  USELESS:          0
cpu0_ITLB AVERAGE MISS LATENCY: -nan cycles
cpu0_L1I TOTAL     ACCESS:    1345382  HIT:    1345382  MISS:          0
cpu0_L1I LOAD      ACCESS:    1345382  HIT:    1345382  MISS:          0
cpu0_L1I RFO       ACCESS:          0  HIT:          0  MISS:          0
cpu0_L1I PREFETCH  ACCESS:          0  HIT:          0  MISS:          0
cpu0_L1I WRITEBACK ACCESS:          0  HIT:          0  MISS:          0
cpu0_L1I TRANSLATION ACCESS:          0  HIT:          0  MISS:          0
cpu0_L1I PREFETCH  REQUESTED:          0  ISSUED:          0  USEFUL:          0  USELESS:          0
cpu0_L1I AVERAGE MISS LATENCY: -nan cycles
cpu0_STLB TOTAL     ACCESS:     118732  HIT:     117848  MISS:        884
cpu0_STLB LOAD      ACCESS:     116459  HIT:     115575  MISS:        884
cpu0_STLB RFO       ACCESS:       2273  HIT:       2273  MISS:          0
cpu0_STLB PREFETCH  ACCESS:          0  HIT:          0  MISS:          0
cpu0_STLB WRITEBACK ACCESS:          0  HIT:          0  MISS:          0
cpu0_STLB TRANSLATION ACCESS:          0  HIT:          0  MISS:          0
cpu0_STLB PREFETCH  REQUESTED:          0  ISSUED:          0  USEFUL:          0  USELESS:          0
cpu0_STLB AVERAGE MISS LATENCY: 198.55 cycles
cpu0_L1D TOTAL     ACCESS:  266258078  HIT:  263484297  MISS:    2773781
cpu0_L1D LOAD      ACCESS:  219173582  HIT:  216533561  MISS:    2640021
cpu0_L1D RFO       ACCESS:   47083613  HIT:   46950138  MISS:     133475
cpu0_L1D PREFETCH  ACCESS:          0  HIT:          0  MISS:          0
cpu0_L1D WRITEBACK ACCESS:          0  HIT:          0  MISS:          0
cpu0_L1D TRANSLATION ACCESS:        883  HIT:        598  MISS:        285
cpu0_L1D PREFETCH  REQUESTED:          0  ISSUED:          0  USEFUL:          0  USELESS:          0
cpu0_L1D AVERAGE MISS LATENCY: 15.5249 cycles
cpu0_L2C TOTAL     ACCESS:    3266436  HIT:    3051383  MISS:     215053
cpu0_L2C LOAD      ACCESS:    2639571  HIT:    2424937  MISS:     214634
cpu0_L2C RFO       ACCESS:     133423  HIT:     133057  MISS:        366
cpu0_L2C PREFETCH  ACCESS:          0  HIT:          0  MISS:          0
cpu0_L2C WRITEBACK ACCESS:     493157  HIT:     493143  MISS:         14
cpu0_L2C TRANSLATION ACCESS:        285  HIT:        246  MISS:         39
cpu0_L2C PREFETCH  REQUESTED:          0  ISSUED:          0  USEFUL:          0  USELESS:          0
cpu0_L2C AVERAGE MISS LATENCY: 58.3145 cycles
LLC TOTAL     ACCESS:     257161  HIT:     189962  MISS:      67199
LLC LOAD      ACCESS:     214634  HIT:     147472  MISS:      67162
LLC RFO       ACCESS:        366  HIT:        354  MISS:         12
LLC PREFETCH  ACCESS:          0  HIT:          0  MISS:          0
LLC WRITEBACK ACCESS:      42122  HIT:      42097  MISS:         25
LLC TRANSLATION ACCESS:         39  HIT:         39  MISS:          0
LLC PREFETCH  REQUESTED:          0  ISSUED:          0  USEFUL:          0  USELESS:          0
LLC AVERAGE MISS LATENCY: 119.42 cycles
~~~~~~~~~~Reuse Distance Profiler output~~~~~~~~~~
0	16283296	11765968
1	36222512	28707536
2	44723856	35789696
3	31312704	25767712
4	31432336	25510976
5	21809040	19746384
6	16571648	13841056
7	10661616	8238128
8	9288944	7132528
9	7971600	6508208
10	7496032	5426704
11	7506880	5677072
12	5820240	4106512
13	4716544	3488624
14	3817984	3121280
15	3981248	3272912
16	3958112	2621568
17	2168896	1489456
18	2452208	1349920
19	3090816	2124512
20	2707760	1977744
21	2513232	1734304
22	2770912	1835104
23	3017632	2452976
24	3212400	2797760
25	4998976	4505472
26	3873488	3298896
27	3206048	2776144
28	2900880	2548768
29	3967280	3606560
30	1786960	1530432
31	704848	495536
32	453216	306992
33	364192	261504
34	298528	204960
35	276944	152736
36	199408	111120
37	168464	107232
38	209520	161616
39	201440	169184
40	275536	251920
41	208704	185856
42	284800	266512
43	320688	301680
44	260464	241536
45	186240	165760
46	110112	77680
47	113344	66320
48	136816	89088
49	113312	64816
50	108240	69200
51	191824	157040
52	135216	94432
53	104688	74560
54	120128	89392
55	126080	93808
56	158320	107248
57	167920	111360
58	224112	164944
59	243824	203472
60	189344	153776
61	114896	71600
62	78880	55744
63	109728	93120
64	210384	183616
66	121664	105664
68	103040	92736
70	85824	78864
72	75824	69152
74	100512	95008
76	172448	165984
78	190640	183120
80	93920	88544
82	88240	81856
84	100400	94816
86	121456	116224
88	180832	176544
90	196624	193280
92	74032	69664
94	55488	52320
96	52272	48544
98	40544	37632
100	32368	28256
102	36496	33328
104	35936	32640
106	30496	27328
108	28992	25712
110	30112	27312
112	30592	27360
114	35520	33264
116	44160	41808
118	43568	41744
120	42192	40464
122	32336	30512
124	25920	24352
126	23680	21744
128	52256	48720
132	48832	45088
136	50560	47648
140	43808	41056
144	54880	52512
148	57776	55472
152	45808	43472
156	48944	46256
160	44592	42608
164	40432	38432
168	36672	35088
172	45744	43776
176	55872	54256
180	43888	42304
184	38896	37424
188	39808	38272
192	36768	35536
196	39264	37888
200	39568	38240
204	46976	45824
208	46160	45200
212	41216	40032
216	36272	35312
220	34224	33200
224	35680	34640
228	35600	34784
232	44032	43136
236	49840	49024
240	42528	41712
244	36096	35248
248	34752	33872
252	35616	34880
256	75056	73568
264	92112	90224
272	71440	70016
280	73040	71696
288	78288	76800
296	83456	82016
304	68208	66752
312	75424	73888
320	81872	80352
328	76944	75632
336	68496	67552
344	73920	72688
352	82768	81840
360	73104	72016
368	72352	71344
376	71696	70752
384	83408	82416
392	73440	72432
400	72816	72048
408	76848	76032
416	81680	80960
424	72224	71344
432	72224	71392
440	78160	77216
448	79664	78944
456	71200	70400
464	73616	72800
472	80528	79584
480	74176	73232
488	72928	72128
496	76272	75312
504	81168	80464
512	143264	141968
528	152832	151648
544	142384	140928
560	153808	152352
576	145088	143856
592	151456	150128
608	145536	144080
624	167168	165984
640	164576	163440
656	183600	182160
672	427968	424800
688	507056	504576
704	678640	675440
720	813616	808688
736	810816	805200
752	1041680	1035904
768	645808	641904
784	608032	604624
800	1550656	1542976
816	1058448	1053008
832	3073808	3060832
848	2551216	2540016
864	2103728	2094416
880	1270816	1263808
896	995056	990032
912	2048624	2038800
928	788320	784128
944	736640	733264
960	353456	351024
976	357520	355248
992	1831472	1823856
1008	353120	350432
1024	674848	669760
1056	702544	697328
1088	537296	532528
1120	560080	555008
1152	624592	617840
1184	708480	701712
1216	857648	848400
1248	870160	862448
1280	1144832	1134832
1312	868176	861040
1344	924720	916144
1376	845120	838064
1408	1008784	999952
1440	679200	672544
1472	466448	461904
1504	555504	550000
1536	881712	873888
1568	406752	402080
1600	600640	594800
1632	485808	480560
1664	330560	326064
1696	300320	296032
1728	290704	286560
1760	429072	424240
1792	293408	288992
1824	262384	258544
1856	256288	252432
1888	251824	247696
1920	252720	248624
1952	246912	243072
1984	234048	230096
2016	235408	231792
2048	449584	441152
2112	436960	429888
2176	424000	416832
2240	405728	398416
2304	376784	369920
2368	375504	368080
2432	370592	363456
2496	358528	350832
2560	350624	343552
2624	335664	328928
2688	333808	327392
2752	328240	321552
2816	320480	313536
2880	312736	306176
2944	295568	289408
3008	293120	285968
3072	288896	282512
3136	286224	280128
3200	279968	273936
3264	264880	259136
3328	264000	258208
3392	265200	258784
3456	255216	249696
3520	248224	242000
3584	239728	234432
3648	235568	229888
3712	233824	228656
3776	223808	218368
3840	220448	215712
3904	207776	202848
3968	213264	208464
4032	212144	207072
4096	412400	403168
4224	401632	392720
4352	389760	381120
4480	368176	358992
4608	352736	343728
4736	342336	333856
4864	323488	315504
4992	315184	307440
5120	307008	299264
5248	301824	294000
5376	291552	284560
5504	278496	272384
5632	271408	264576
5760	251184	244608
5888	241648	236160
6016	233408	227504
6144	232400	226784
6272	226848	221808
6400	217408	212160
6528	213056	208112
6656	207280	202576
6784	202032	197584
6912	197184	193040
7040	187968	183840
7168	184928	180912
7296	174112	170624
7424	172480	168816
7552	169056	165376
7680	163584	160496
7808	156064	152080
7936	152032	148640
8064	147072	143760
8192	269856	263920
8448	251104	245616
8704	234416	228688
8960	210928	206384
9216	205488	201024
9472	193104	189072
9728	185760	182064
9984	169408	165840
10240	155248	151968
10496	147616	144848
10752	140160	137424
11008	129008	126128
11264	129936	127360
11520	119984	117584
11776	107632	105488
12032	105904	104080
12288	100192	97936
12544	95536	93264
12800	92352	90352
13056	89072	87312
13312	84896	83056
13568	80464	78704
13824	76720	74736
14080	76128	74304
14336	78688	77024
14592	74368	72720
14848	72512	71136
15104	68080	66400
15360	68864	67296
15616	62768	61040
15872	60592	59120
16128	61184	59920
16384	112704	109808
16896	109424	106976
17408	102976	100416
17920	90384	87952
18432	93552	91232
18944	81296	78960
19456	80896	78608
19968	72112	69744
20480	67488	65568
20992	65936	64128
21504	64208	62080
22016	61680	59744
22528	56592	54736
23040	56704	54976
23552	52704	51056
24064	47232	45760
24576	45280	43552
25088	45488	44112
25600	40288	38992
26112	38800	37472
26624	35184	33776
27136	34928	33552
27648	30576	29616
28160	30752	29760
28672	27440	26688
29184	28080	26944
29696	27952	27344
30208	26208	25552
30720	23648	22768
31232	24096	23280
31744	23280	22336
32256	19488	18832
32768	41952	40848
33792	37328	35824
34816	35136	33600
35840	33024	31792
36864	29872	28816
37888	31168	30080
38912	26768	25696
39936	23904	22992
40960	23072	22336
41984	22800	22160
43008	22512	21680
44032	22384	21648
45056	20096	19456
46080	20400	19696
47104	17984	17296
48128	17744	17152
49152	17072	16432
50176	15552	14896
51200	14608	13968
52224	14688	14192
53248	13744	13264
54272	14128	13696
55296	12864	12384
56320	13008	12512
57344	12256	11792
58368	12096	11616
59392	12320	11840
60416	10976	10480
61440	10976	10480
62464	10320	9936
63488	9760	9344
64512	10544	10176
65536	19360	18752
67584	17232	16720
69632	17248	16560
71680	16672	16144
73728	15200	14720
75776	14192	13472
77824	14592	13952
79872	13392	12816
81920	12592	12160
83968	12480	11952
86016	11984	11616
88064	11328	10976
90112	9856	9488
92160	10128	9632
94208	9696	9360
96256	9456	9072
98304	9728	9248
100352	8736	8432
102400	7440	7152
104448	7600	7216
106496	7904	7648
108544	6720	6464
110592	7744	7344
112640	6912	6672
114688	7424	7200
116736	6976	6768
118784	5520	5264
120832	6064	5872
122880	5712	5536
124928	6288	5984
126976	5888	5632
129024	5280	5152
131072	10144	9648
135168	10272	9904
139264	9680	9280
143360	9424	9024
147456	9888	9568
151552	9040	8688
155648	8160	7808
159744	6896	6656
163840	7344	6912
167936	7712	7280
172032	7296	7024
176128	6928	6624
180224	6080	5840
184320	7120	6768
188416	6768	6448
192512	6496	6320
196608	6592	6384
200704	6624	6480
204800	6192	5952
208896	7184	6912
212992	6896	6640
217088	7280	7104
221184	7344	7136
225280	7648	7376
229376	7904	7616
233472	7168	6928
237568	7504	7312
241664	7328	7200
245760	6384	6272
249856	7040	6976
253952	6688	6576
258048	6720	6592
262144	12128	11888
270336	11440	11264
278528	11888	11728
286720	10224	10096
294912	9408	9136
303104	9536	9360
311296	9808	9600
319488	10416	10272
327680	9184	8912
335872	9696	9536
344064	10016	9808
352256	8704	8592
360448	8896	8768
368640	8928	8768
376832	8912	8736
385024	9104	8848
393216	9600	9376
401408	9648	9536
409600	8896	8736
417792	8240	8144
425984	8432	8240
434176	8688	8592
442368	7104	6880
450560	7200	7040
458752	6432	6384
466944	6784	6624
475136	5360	5232
483328	4880	4672
491520	5488	5360
499712	4688	4656
507904	4480	4416
516096	4768	4640
524288	7520	7456
540672	6960	6848
557056	6992	6880
573440	6416	6288
589824	6016	5936
606208	6512	6400
622592	5632	5568
638976	5824	5792
655360	5232	5120
671744	4208	4112
688128	4192	4144
704512	4000	3936
720896	3824	3776
737280	3408	3296
753664	3792	3728
770048	3136	3136
786432	2944	2912
802816	2832	2784
819200	2912	2896
835584	2816	2784
851968	2416	2384
868352	2624	2608
884736	2688	2656
901120	2560	2528
917504	2064	2016
933888	2624	2576
950272	2224	2208
966656	3072	3024
983040	2544	2496
999424	2592	2592
1015808	2032	2016
1032192	2544	2496
1048576	4544	4528
1081344	4048	4032
1114112	4000	3968
1146880	4208	4176
1179648	3856	3840
1212416	4080	4064
1245184	3920	3904
1277952	4576	4528
1310720	4704	4624
1343488	4336	4208
1376256	5328	5248
1409024	4384	4352
1441792	4256	4224
1474560	3600	3520
1507328	4240	4208
1540096	3184	3168
1572864	3680	3600
1605632	2592	2544
1638400	2928	2912
1671168	2384	2336
1703936	3472	3392
1736704	2368	2352
1769472	2480	2448
1802240	2128	2096
1835008	1936	1888
1867776	1584	1552
1900544	1376	1360
1933312	1984	1936
1966080	1120	1072
1998848	1472	1424
2031616	1376	1360
2064384	1360	1328
2097152	1760	1744
2162688	2160	2096
2228224	1536	1472
2293760	1472	1424
2359296	1056	1040
2424832	1120	1104
2490368	944	912
2555904	896	880
2621440	944	944
2686976	864	800
2752512	1152	1056
2818048	944	912
2883584	928	896
2949120	960	928
3014656	912	832
3080192	736	688
3145728	592	544
3211264	608	576
3276800	608	576
3342336	640	576
3407872	560	544
3473408	432	416
3538944	464	448
3604480	656	624
3670016	464	448
3735552	480	432
3801088	704	704
3866624	1008	1008
3932160	704	672
3997696	608	592
4063232	400	400
4128768	448	448
4194304	1152	1120
4325376	768	752
4456448	624	608
4587520	576	576
4718592	592	560
4849664	368	352
4980736	528	512
5111808	480	480
5242880	496	496
5373952	352	352
5505024	304	288
5636096	320	320
5767168	656	656
5898240	720	720
6029312	304	304
6160384	464	464
6291456	480	464
6422528	816	768
6553600	528	496
6684672	416	400
6815744	1600	1600
6946816	1088	1072
7077888	912	896
7208960	2464	2464
7340032	2112	2112
7471104	2768	2768
7602176	2896	2896
7733248	992	992
7864320	448	448
7995392	1120	1120
8126464	1152	1152
8257536	1760	1760
8388608	4464	4464
8650752	8960	8960
8912896	2944	2944
9175040	1872	1872
9437184	2192	2176
9699328	2496	2496
9961472	4576	4576
10223616	7168	7168
10485760	8864	8864
10747904	7008	7008
11010048	5984	5984
11272192	6176	6176
11534336	7696	7680
11796480	8624	8624
12058624	7888	7872
12320768	4048	4048
12582912	8672	8672
12845056	2048	2048
13107200	976	976
13369344	304	304
13631488	2688	2688
13893632	2640	2640
14155776	1104	1104
14417920	1472	1472
14680064	2064	2048
14942208	1520	1520
15204352	2176	2176
15466496	4832	4832
15728640	2368	2368
15990784	544	544
16252928	1696	1696
16515072	2112	2112
16777216	2544	2544
17301504	896	896
17825792	128	128
18350080	16	16
18874368	0	0
19398656	16	16
19922944	64	64
20447232	16	16
20971520	0	0
21495808	16	16
22020096	48	48
22544384	32	32
23068672	32	32
23592960	16	16
24117248	80	64
24641536	16	16
25165824	0	0
25690112	32	16
26214400	0	0
26738688	16	16
27262976	16	16
27787264	0	0
28311552	96	96
28835840	0	0
29360128	0	0
29884416	16	16
30408704	48	48
30932992	48	48
31457280	144	144
31981568	32	32
32505856	32	32
33030144	32	32
33554432	80	80
34603008	160	160
35651584	192	192
36700160	560	560
37748736	1376	1376
38797312	1568	1552
39845888	576	576
40894464	128	128
41943040	1200	1200
42991616	416	416
44040192	432	432
45088768	2496	2496
46137344	5728	5728
47185920	5648	5632
48234496	4720	4720
49283072	1328	1328
50331648	1712	1712
51380224	672	672
52428800	640	640
53477376	752	752
54525952	928	928
55574528	1888	1888
56623104	3920	3920
57671680	2832	2832
58720256	2496	2496
59768832	3664	3664
60817408	3328	3328
61865984	1920	1920
62914560	1376	1376
63963136	1632	1632
65011712	1168	1168
66060288	128	128
67108864	4640	4640
69206016	2976	2976
71303168	3440	3440
73400320	3056	3056
75497472	608	608
77594624	1488	1488
79691776	2096	2096
81788928	1104	1104
83886080	320	320
85983232	464	464
88080384	144	144
90177536	48	48
92274688	144	144
94371840	480	480
96468992	1392	1392
98566144	656	656
100663296	48	48
102760448	0	0
104857600	0	0
106954752	16	16
109051904	16	16
111149056	0	0
113246208	0	0
115343360	0	0
117440512	0	0
119537664	0	0
121634816	0	0
123731968	0	0
125829120	0	0
127926272	0	0
130023424	0	0
132120576	0	0
134217728	16	16
138412032	0	0
142606336	0	0
146800640	16	16
150994944	0	0
155189248	0	0
159383552	0	0
163577856	0	0
167772160	16	16
171966464	16	16
176160768	0	0
180355072	0	0
184549376	0	0
188743680	0	0
192937984	0	0
197132288	0	0
201326592	0	0
205520896	0	0
209715200	0	0
213909504	0	0
218103808	0	0
222298112	0	0
226492416	16	16
230686720	0	0
234881024	0	0
239075328	32	32
243269632	96	96
247463936	0	0
251658240	0	0
255852544	0	0
260046848	0	0
264241152	16	16
268435456	0	0
276824064	96	96
285212672	48	48
293601280	80	80
301989888	192	192
310378496	64	64
318767104	144	144
327155712	80	80
335544320	64	64
343932928	0	0
352321536	288	288
360710144	16	16
369098752	64	64
377487360	32	32
385875968	0	0
394264576	0	0
402653184	0	0
411041792	0	0
419430400	0	0
427819008	0	0
436207616	0	0
444596224	0	0
452984832	0	0
461373440	0	0
469762048	0	0
478150656	0	0
486539264	0	0
494927872	0	0
503316480	0	0
511705088	0	0
520093696	0	0
528482304	0	0
536870912	0	0
553648128	0	0
570425344	0	0
587202560	0	0
603979776	0	0
620756992	0	0
637534208	0	0
654311424	0	0
671088640	0	0
687865856	0	0
704643072	0	0
721420288	0	0
738197504	0	0
754974720	0	0
771751936	0	0
788529152	0	0
805306368	0	0
822083584	0	0
838860800	0	0
855638016	0	0
872415232	0	0
889192448	0	0
905969664	0	0
922746880	0	0
939524096	0	0
956301312	0	0
973078528	0	0
989855744	0	0
1006632960	0	0
1023410176	0	0
1040187392	0	0
1056964608	0	0
1073741824	0	0
1107296256	0	0
1140850688	0	0
1174405120	0	0
1207959552	0	0
1241513984	0	0
1275068416	0	0
1308622848	0	0
1342177280	0	0
1375731712	0	0
1409286144	0	0
1442840576	0	0
1476395008	0	0
1509949440	0	0
1543503872	0	0
1577058304	0	0
1610612736	0	0
1644167168	0	0
1677721600	0	0
1711276032	0	0
1744830464	0	0
1778384896	0	0
1811939328	0	0
1845493760	0	0
1879048192	0	0
1912602624	0	0
1946157056	0	0
1979711488	0	0
2013265920	0	0
2046820352	0	0
2080374784	0	0
2113929216	0	0
2147483648	0	0
2214592512	0	0
2281701376	0	0
2348810240	0	0
2415919104	0	0
2483027968	0	0
2550136832	0	0
2617245696	0	0
2684354560	0	0
2751463424	0	0
2818572288	0	0
2885681152	0	0
2952790016	0	0
3019898880	0	0
3087007744	0	0
3154116608	0	0
3221225472	0	0
3288334336	0	0
3355443200	0	0
3422552064	0	0
3489660928	0	0
3556769792	0	0
3623878656	0	0
3690987520	0	0
3758096384	0	0
3825205248	0	0
3892314112	0	0
3959422976	0	0
4026531840	0	0
4093640704	0	0
4160749568	0	0
4227858432	0	0
~~~~~~~~~~Reuse Distance Profiler output end~~~~~~~~~~

DRAM Statistics
 CHANNEL 0
 RQ ROW_BUFFER_HIT:      29886  ROW_BUFFER_MISS:      37288
 DBUS AVG_CONGESTED_CYCLE:    3.59979
 WQ ROW_BUFFER_HIT:       9951  ROW_BUFFER_MISS:       6087  FULL:          0


CPU 0 Branch Prediction Accuracy: 95.836% MPKI: 2.50801 Average ROB Occupancy at Mispredict: 92.3252
Branch type MPKI
BRANCH_DIRECT_JUMP: 0
BRANCH_INDIRECT: 0
BRANCH_CONDITIONAL: 2.50801
BRANCH_DIRECT_CALL: 0
BRANCH_INDIRECT_CALL: 0
BRANCH_RETURN: 0

