
*** ChampSim Multicore Out-of-Order Simulator ***

Warmup Instructions: 500000000
Simulation Instructions: 1500000000
Number of CPUs: 1
Off-chip DRAM Size: 4 GiB Channels: 1 Width: 64-bit Data Rate: 3200 MT/s

VirtualMemory physical capacity: 8588881920 num_ppages: 2096895
VirtualMemory page size: 4096 log2_page_size: 12

CPU 0 runs traces/444.namd-33B.champsimtrace.xz
CPU 0 Bimodal branch predictor
Basic BTB sets: 1024 ways: 8 indirect buffer size: 4096 RAS size: 64
Initializing LRU.
Initializing LRU.
Initializing LRU.
Initializing LRU.
Initializing rdLRU.
Initializing LRU.
Initializing LRU.
Heartbeat CPU 0 instructions: 10000001 cycles: 2854780 heartbeat IPC: 3.5029 cumulative IPC: 3.5029 (Simulation time: 0 hr 0 min 54 sec) 
Heartbeat CPU 0 instructions: 20000003 cycles: 5722486 heartbeat IPC: 3.48711 cumulative IPC: 3.49499 (Simulation time: 0 hr 1 min 41 sec) 
Heartbeat CPU 0 instructions: 30000000 cycles: 8532705 heartbeat IPC: 3.55844 cumulative IPC: 3.51588 (Simulation time: 0 hr 2 min 24 sec) 
Heartbeat CPU 0 instructions: 40000000 cycles: 11389708 heartbeat IPC: 3.50017 cumulative IPC: 3.51194 (Simulation time: 0 hr 3 min 2 sec) 
Heartbeat CPU 0 instructions: 50000002 cycles: 14199700 heartbeat IPC: 3.55873 cumulative IPC: 3.5212 (Simulation time: 0 hr 3 min 39 sec) 
Heartbeat CPU 0 instructions: 60000000 cycles: 16987819 heartbeat IPC: 3.58665 cumulative IPC: 3.53194 (Simulation time: 0 hr 4 min 16 sec) 
Heartbeat CPU 0 instructions: 70000004 cycles: 19907251 heartbeat IPC: 3.42533 cumulative IPC: 3.51631 (Simulation time: 0 hr 4 min 55 sec) 
Heartbeat CPU 0 instructions: 80000003 cycles: 22687675 heartbeat IPC: 3.59657 cumulative IPC: 3.52614 (Simulation time: 0 hr 5 min 32 sec) 
Heartbeat CPU 0 instructions: 90000004 cycles: 25586945 heartbeat IPC: 3.44914 cumulative IPC: 3.51742 (Simulation time: 0 hr 6 min 11 sec) 
Heartbeat CPU 0 instructions: 100000002 cycles: 28382549 heartbeat IPC: 3.57704 cumulative IPC: 3.52329 (Simulation time: 0 hr 6 min 48 sec) 
Heartbeat CPU 0 instructions: 110000001 cycles: 31275084 heartbeat IPC: 3.45717 cumulative IPC: 3.51718 (Simulation time: 0 hr 7 min 27 sec) 
Heartbeat CPU 0 instructions: 120000003 cycles: 34074682 heartbeat IPC: 3.57194 cumulative IPC: 3.52168 (Simulation time: 0 hr 8 min 4 sec) 
Heartbeat CPU 0 instructions: 130000003 cycles: 36970344 heartbeat IPC: 3.45344 cumulative IPC: 3.51633 (Simulation time: 0 hr 8 min 43 sec) 
Heartbeat CPU 0 instructions: 140000001 cycles: 39703337 heartbeat IPC: 3.65899 cumulative IPC: 3.52615 (Simulation time: 0 hr 9 min 19 sec) 
Heartbeat CPU 0 instructions: 150000002 cycles: 42509112 heartbeat IPC: 3.56408 cumulative IPC: 3.52866 (Simulation time: 0 hr 9 min 57 sec) 
Heartbeat CPU 0 instructions: 160000001 cycles: 45284753 heartbeat IPC: 3.60277 cumulative IPC: 3.5332 (Simulation time: 0 hr 10 min 37 sec) 
Heartbeat CPU 0 instructions: 170000004 cycles: 48168766 heartbeat IPC: 3.46739 cumulative IPC: 3.52926 (Simulation time: 0 hr 11 min 42 sec) 
Heartbeat CPU 0 instructions: 180000000 cycles: 50989376 heartbeat IPC: 3.54533 cumulative IPC: 3.53015 (Simulation time: 0 hr 12 min 44 sec) 
Heartbeat CPU 0 instructions: 190000000 cycles: 53785106 heartbeat IPC: 3.57688 cumulative IPC: 3.53258 (Simulation time: 0 hr 13 min 21 sec) 
Heartbeat CPU 0 instructions: 200000003 cycles: 56583624 heartbeat IPC: 3.57332 cumulative IPC: 3.53459 (Simulation time: 0 hr 13 min 58 sec) 
Heartbeat CPU 0 instructions: 210000000 cycles: 59433777 heartbeat IPC: 3.50858 cumulative IPC: 3.53334 (Simulation time: 0 hr 14 min 47 sec) 
Heartbeat CPU 0 instructions: 220000000 cycles: 62328129 heartbeat IPC: 3.455 cumulative IPC: 3.52971 (Simulation time: 0 hr 15 min 38 sec) 
Heartbeat CPU 0 instructions: 230000002 cycles: 65134032 heartbeat IPC: 3.56392 cumulative IPC: 3.53118 (Simulation time: 0 hr 16 min 15 sec) 
Heartbeat CPU 0 instructions: 240000003 cycles: 68021489 heartbeat IPC: 3.46326 cumulative IPC: 3.5283 (Simulation time: 0 hr 16 min 53 sec) 
Heartbeat CPU 0 instructions: 250000001 cycles: 70785317 heartbeat IPC: 3.61817 cumulative IPC: 3.53181 (Simulation time: 0 hr 17 min 31 sec) 
Heartbeat CPU 0 instructions: 260000000 cycles: 73563146 heartbeat IPC: 3.59993 cumulative IPC: 3.53438 (Simulation time: 0 hr 18 min 8 sec) 
Heartbeat CPU 0 instructions: 270000002 cycles: 76474965 heartbeat IPC: 3.43428 cumulative IPC: 3.53057 (Simulation time: 0 hr 18 min 48 sec) 
Heartbeat CPU 0 instructions: 280000001 cycles: 79261573 heartbeat IPC: 3.58859 cumulative IPC: 3.53261 (Simulation time: 0 hr 19 min 26 sec) 
Heartbeat CPU 0 instructions: 290000004 cycles: 82149526 heartbeat IPC: 3.46266 cumulative IPC: 3.53015 (Simulation time: 0 hr 20 min 6 sec) 
Heartbeat CPU 0 instructions: 300000003 cycles: 84938560 heartbeat IPC: 3.58547 cumulative IPC: 3.53196 (Simulation time: 0 hr 20 min 45 sec) 
Heartbeat CPU 0 instructions: 310000003 cycles: 87710311 heartbeat IPC: 3.60783 cumulative IPC: 3.53436 (Simulation time: 0 hr 21 min 22 sec) 
Heartbeat CPU 0 instructions: 320000002 cycles: 90620654 heartbeat IPC: 3.43602 cumulative IPC: 3.5312 (Simulation time: 0 hr 22 min 1 sec) 
Heartbeat CPU 0 instructions: 330000002 cycles: 93411717 heartbeat IPC: 3.58286 cumulative IPC: 3.53275 (Simulation time: 0 hr 22 min 41 sec) 
Heartbeat CPU 0 instructions: 340000001 cycles: 96276857 heartbeat IPC: 3.49023 cumulative IPC: 3.53148 (Simulation time: 0 hr 23 min 20 sec) 
Heartbeat CPU 0 instructions: 350000003 cycles: 99055001 heartbeat IPC: 3.59953 cumulative IPC: 3.53339 (Simulation time: 0 hr 23 min 56 sec) 
Heartbeat CPU 0 instructions: 360000003 cycles: 101829278 heartbeat IPC: 3.60454 cumulative IPC: 3.53533 (Simulation time: 0 hr 24 min 43 sec) 
Heartbeat CPU 0 instructions: 370000001 cycles: 104726125 heartbeat IPC: 3.45203 cumulative IPC: 3.53302 (Simulation time: 0 hr 25 min 34 sec) 
Heartbeat CPU 0 instructions: 380000001 cycles: 107565893 heartbeat IPC: 3.52141 cumulative IPC: 3.53272 (Simulation time: 0 hr 26 min 16 sec) 
Heartbeat CPU 0 instructions: 390000002 cycles: 110402992 heartbeat IPC: 3.52473 cumulative IPC: 3.53251 (Simulation time: 0 hr 27 min 6 sec) 
Heartbeat CPU 0 instructions: 400000000 cycles: 113268668 heartbeat IPC: 3.48958 cumulative IPC: 3.53143 (Simulation time: 0 hr 28 min 6 sec) 
Heartbeat CPU 0 instructions: 410000003 cycles: 116098341 heartbeat IPC: 3.53398 cumulative IPC: 3.53149 (Simulation time: 0 hr 29 min 15 sec) 
Heartbeat CPU 0 instructions: 420000000 cycles: 118942353 heartbeat IPC: 3.51616 cumulative IPC: 3.53112 (Simulation time: 0 hr 29 min 56 sec) 
Heartbeat CPU 0 instructions: 430000003 cycles: 121778132 heartbeat IPC: 3.52637 cumulative IPC: 3.53101 (Simulation time: 0 hr 30 min 50 sec) 
Heartbeat CPU 0 instructions: 440000003 cycles: 124572088 heartbeat IPC: 3.57915 cumulative IPC: 3.53209 (Simulation time: 0 hr 31 min 46 sec) 
Heartbeat CPU 0 instructions: 450000002 cycles: 127327086 heartbeat IPC: 3.62977 cumulative IPC: 3.5342 (Simulation time: 0 hr 32 min 33 sec) 
Heartbeat CPU 0 instructions: 460000000 cycles: 130221530 heartbeat IPC: 3.45489 cumulative IPC: 3.53244 (Simulation time: 0 hr 33 min 12 sec) 
Heartbeat CPU 0 instructions: 470000002 cycles: 133019517 heartbeat IPC: 3.574 cumulative IPC: 3.53332 (Simulation time: 0 hr 33 min 48 sec) 
Heartbeat CPU 0 instructions: 480000003 cycles: 135846878 heartbeat IPC: 3.53687 cumulative IPC: 3.53339 (Simulation time: 0 hr 34 min 26 sec) 
Heartbeat CPU 0 instructions: 490000002 cycles: 138727957 heartbeat IPC: 3.47092 cumulative IPC: 3.53209 (Simulation time: 0 hr 35 min 5 sec) 
Heartbeat CPU 0 instructions: 500000001 cycles: 141514415 heartbeat IPC: 3.58879 cumulative IPC: 3.53321 (Simulation time: 0 hr 35 min 43 sec) 

Warmup complete CPU 0 instructions: 500000001 cycles: 141514415 (Simulation time: 0 hr 35 min 43 sec) 

Heartbeat CPU 0 instructions: 510000001 cycles: 145446186 heartbeat IPC: 2.54338 cumulative IPC: 2.54338 (Simulation time: 0 hr 36 min 21 sec) 
Heartbeat CPU 0 instructions: 520000002 cycles: 149308073 heartbeat IPC: 2.58941 cumulative IPC: 2.56619 (Simulation time: 0 hr 37 min 0 sec) 
Heartbeat CPU 0 instructions: 530000001 cycles: 153153658 heartbeat IPC: 2.60038 cumulative IPC: 2.57749 (Simulation time: 0 hr 37 min 39 sec) 
Heartbeat CPU 0 instructions: 540000000 cycles: 156954493 heartbeat IPC: 2.631 cumulative IPC: 2.59066 (Simulation time: 0 hr 38 min 15 sec) 
Heartbeat CPU 0 instructions: 550000001 cycles: 160860016 heartbeat IPC: 2.56048 cumulative IPC: 2.58457 (Simulation time: 0 hr 38 min 53 sec) 
Heartbeat CPU 0 instructions: 560000004 cycles: 164655083 heartbeat IPC: 2.635 cumulative IPC: 2.59284 (Simulation time: 0 hr 39 min 30 sec) 
Heartbeat CPU 0 instructions: 570000001 cycles: 168495816 heartbeat IPC: 2.60367 cumulative IPC: 2.59438 (Simulation time: 0 hr 40 min 7 sec) 
Heartbeat CPU 0 instructions: 580000000 cycles: 172510936 heartbeat IPC: 2.49059 cumulative IPC: 2.58093 (Simulation time: 0 hr 40 min 45 sec) 
Heartbeat CPU 0 instructions: 590000004 cycles: 176319305 heartbeat IPC: 2.6258 cumulative IPC: 2.58584 (Simulation time: 0 hr 41 min 31 sec) 
Heartbeat CPU 0 instructions: 600000002 cycles: 180200251 heartbeat IPC: 2.57669 cumulative IPC: 2.58493 (Simulation time: 0 hr 42 min 38 sec) 
Heartbeat CPU 0 instructions: 610000001 cycles: 183956894 heartbeat IPC: 2.66195 cumulative IPC: 2.59174 (Simulation time: 0 hr 43 min 27 sec) 
Heartbeat CPU 0 instructions: 620000001 cycles: 187947212 heartbeat IPC: 2.50607 cumulative IPC: 2.58438 (Simulation time: 0 hr 44 min 6 sec) 
Heartbeat CPU 0 instructions: 630000003 cycles: 191946111 heartbeat IPC: 2.50069 cumulative IPC: 2.57774 (Simulation time: 0 hr 44 min 43 sec) 
Heartbeat CPU 0 instructions: 640000000 cycles: 196046553 heartbeat IPC: 2.43876 cumulative IPC: 2.56729 (Simulation time: 0 hr 45 min 21 sec) 
Heartbeat CPU 0 instructions: 650000000 cycles: 200178327 heartbeat IPC: 2.42027 cumulative IPC: 2.55694 (Simulation time: 0 hr 45 min 59 sec) 
Heartbeat CPU 0 instructions: 660000004 cycles: 204301596 heartbeat IPC: 2.42526 cumulative IPC: 2.54829 (Simulation time: 0 hr 46 min 38 sec) 
Heartbeat CPU 0 instructions: 670000000 cycles: 208350181 heartbeat IPC: 2.47 cumulative IPC: 2.54355 (Simulation time: 0 hr 47 min 40 sec) 
Heartbeat CPU 0 instructions: 680000001 cycles: 212377166 heartbeat IPC: 2.48325 cumulative IPC: 2.54012 (Simulation time: 0 hr 48 min 17 sec) 
Heartbeat CPU 0 instructions: 690000000 cycles: 216481304 heartbeat IPC: 2.43656 cumulative IPC: 2.53445 (Simulation time: 0 hr 48 min 55 sec) 
Heartbeat CPU 0 instructions: 700000001 cycles: 220470888 heartbeat IPC: 2.50653 cumulative IPC: 2.53304 (Simulation time: 0 hr 49 min 33 sec) 
Heartbeat CPU 0 instructions: 710000004 cycles: 224468985 heartbeat IPC: 2.50119 cumulative IPC: 2.53151 (Simulation time: 0 hr 50 min 10 sec) 
Heartbeat CPU 0 instructions: 720000001 cycles: 228491889 heartbeat IPC: 2.48577 cumulative IPC: 2.52939 (Simulation time: 0 hr 50 min 48 sec) 
Heartbeat CPU 0 instructions: 730000000 cycles: 232532386 heartbeat IPC: 2.47494 cumulative IPC: 2.52697 (Simulation time: 0 hr 51 min 26 sec) 
Heartbeat CPU 0 instructions: 740000004 cycles: 236549451 heartbeat IPC: 2.48938 cumulative IPC: 2.52538 (Simulation time: 0 hr 52 min 4 sec) 
Heartbeat CPU 0 instructions: 750000001 cycles: 240550380 heartbeat IPC: 2.49942 cumulative IPC: 2.52434 (Simulation time: 0 hr 52 min 42 sec) 
Heartbeat CPU 0 instructions: 760000002 cycles: 244609654 heartbeat IPC: 2.4635 cumulative IPC: 2.52194 (Simulation time: 0 hr 53 min 20 sec) 
Heartbeat CPU 0 instructions: 770000004 cycles: 248602350 heartbeat IPC: 2.50457 cumulative IPC: 2.52129 (Simulation time: 0 hr 53 min 59 sec) 
Heartbeat CPU 0 instructions: 780000004 cycles: 252622671 heartbeat IPC: 2.48736 cumulative IPC: 2.52006 (Simulation time: 0 hr 54 min 39 sec) 
Heartbeat CPU 0 instructions: 790000000 cycles: 256688064 heartbeat IPC: 2.45979 cumulative IPC: 2.51794 (Simulation time: 0 hr 55 min 36 sec) 
Heartbeat CPU 0 instructions: 800000001 cycles: 260749243 heartbeat IPC: 2.46234 cumulative IPC: 2.51604 (Simulation time: 0 hr 56 min 43 sec) 
Heartbeat CPU 0 instructions: 810000002 cycles: 264778922 heartbeat IPC: 2.48159 cumulative IPC: 2.51492 (Simulation time: 0 hr 57 min 52 sec) 
Heartbeat CPU 0 instructions: 820000004 cycles: 268803441 heartbeat IPC: 2.48477 cumulative IPC: 2.51396 (Simulation time: 0 hr 58 min 49 sec) 
Heartbeat CPU 0 instructions: 830000001 cycles: 272851125 heartbeat IPC: 2.47055 cumulative IPC: 2.51263 (Simulation time: 0 hr 59 min 28 sec) 
Heartbeat CPU 0 instructions: 840000002 cycles: 276908004 heartbeat IPC: 2.46495 cumulative IPC: 2.5112 (Simulation time: 1 hr 0 min 6 sec) 
Heartbeat CPU 0 instructions: 850000003 cycles: 281006022 heartbeat IPC: 2.4402 cumulative IPC: 2.50911 (Simulation time: 1 hr 0 min 44 sec) 
Heartbeat CPU 0 instructions: 860000002 cycles: 285064092 heartbeat IPC: 2.46423 cumulative IPC: 2.50784 (Simulation time: 1 hr 1 min 22 sec) 
Heartbeat CPU 0 instructions: 870000000 cycles: 289129013 heartbeat IPC: 2.46007 cumulative IPC: 2.50653 (Simulation time: 1 hr 1 min 59 sec) 
Heartbeat CPU 0 instructions: 880000000 cycles: 293205994 heartbeat IPC: 2.4528 cumulative IPC: 2.50508 (Simulation time: 1 hr 2 min 37 sec) 
Heartbeat CPU 0 instructions: 890000003 cycles: 297207458 heartbeat IPC: 2.49909 cumulative IPC: 2.50493 (Simulation time: 1 hr 3 min 14 sec) 
Heartbeat CPU 0 instructions: 900000000 cycles: 301199964 heartbeat IPC: 2.50469 cumulative IPC: 2.50492 (Simulation time: 1 hr 3 min 52 sec) 
Heartbeat CPU 0 instructions: 910000001 cycles: 305169285 heartbeat IPC: 2.51932 cumulative IPC: 2.50527 (Simulation time: 1 hr 4 min 29 sec) 
Heartbeat CPU 0 instructions: 920000001 cycles: 309122909 heartbeat IPC: 2.52933 cumulative IPC: 2.50584 (Simulation time: 1 hr 5 min 8 sec) 
Heartbeat CPU 0 instructions: 930000004 cycles: 313115553 heartbeat IPC: 2.50461 cumulative IPC: 2.50581 (Simulation time: 1 hr 5 min 46 sec) 
Heartbeat CPU 0 instructions: 940000000 cycles: 317014269 heartbeat IPC: 2.56495 cumulative IPC: 2.50712 (Simulation time: 1 hr 6 min 24 sec) 
Heartbeat CPU 0 instructions: 950000000 cycles: 321030701 heartbeat IPC: 2.48977 cumulative IPC: 2.50674 (Simulation time: 1 hr 7 min 2 sec) 
Heartbeat CPU 0 instructions: 960000000 cycles: 325029906 heartbeat IPC: 2.5005 cumulative IPC: 2.5066 (Simulation time: 1 hr 7 min 41 sec) 
Heartbeat CPU 0 instructions: 970000001 cycles: 328976527 heartbeat IPC: 2.53381 cumulative IPC: 2.50717 (Simulation time: 1 hr 8 min 18 sec) 
Heartbeat CPU 0 instructions: 980000002 cycles: 333012102 heartbeat IPC: 2.47796 cumulative IPC: 2.50656 (Simulation time: 1 hr 8 min 56 sec) 
Heartbeat CPU 0 instructions: 990000004 cycles: 337112688 heartbeat IPC: 2.43868 cumulative IPC: 2.50513 (Simulation time: 1 hr 9 min 35 sec) 
Heartbeat CPU 0 instructions: 1000000003 cycles: 341164995 heartbeat IPC: 2.46773 cumulative IPC: 2.50438 (Simulation time: 1 hr 10 min 12 sec) 
Heartbeat CPU 0 instructions: 1010000001 cycles: 345222616 heartbeat IPC: 2.4645 cumulative IPC: 2.50358 (Simulation time: 1 hr 11 min 13 sec) 
Heartbeat CPU 0 instructions: 1020000000 cycles: 349228947 heartbeat IPC: 2.49605 cumulative IPC: 2.50344 (Simulation time: 1 hr 11 min 56 sec) 
Heartbeat CPU 0 instructions: 1030000001 cycles: 353205744 heartbeat IPC: 2.51459 cumulative IPC: 2.50365 (Simulation time: 1 hr 12 min 35 sec) 
Heartbeat CPU 0 instructions: 1040000000 cycles: 357146284 heartbeat IPC: 2.53772 cumulative IPC: 2.50427 (Simulation time: 1 hr 13 min 13 sec) 
Heartbeat CPU 0 instructions: 1050000001 cycles: 361043515 heartbeat IPC: 2.56592 cumulative IPC: 2.50536 (Simulation time: 1 hr 13 min 52 sec) 
Heartbeat CPU 0 instructions: 1060000001 cycles: 364957207 heartbeat IPC: 2.55513 cumulative IPC: 2.50623 (Simulation time: 1 hr 14 min 31 sec) 
Heartbeat CPU 0 instructions: 1070000000 cycles: 368968775 heartbeat IPC: 2.49279 cumulative IPC: 2.506 (Simulation time: 1 hr 15 min 10 sec) 
Heartbeat CPU 0 instructions: 1080000002 cycles: 372809517 heartbeat IPC: 2.60366 cumulative IPC: 2.50762 (Simulation time: 1 hr 15 min 47 sec) 
Heartbeat CPU 0 instructions: 1090000001 cycles: 376799859 heartbeat IPC: 2.50605 cumulative IPC: 2.50759 (Simulation time: 1 hr 16 min 24 sec) 
Heartbeat CPU 0 instructions: 1100000001 cycles: 380739094 heartbeat IPC: 2.53856 cumulative IPC: 2.5081 (Simulation time: 1 hr 17 min 1 sec) 
Heartbeat CPU 0 instructions: 1110000002 cycles: 384737987 heartbeat IPC: 2.50069 cumulative IPC: 2.50798 (Simulation time: 1 hr 17 min 38 sec) 
Heartbeat CPU 0 instructions: 1120000000 cycles: 388712251 heartbeat IPC: 2.51619 cumulative IPC: 2.50811 (Simulation time: 1 hr 18 min 16 sec) 
Heartbeat CPU 0 instructions: 1130000002 cycles: 392821444 heartbeat IPC: 2.43357 cumulative IPC: 2.50689 (Simulation time: 1 hr 18 min 53 sec) 
Heartbeat CPU 0 instructions: 1140000004 cycles: 396878013 heartbeat IPC: 2.46514 cumulative IPC: 2.50623 (Simulation time: 1 hr 19 min 32 sec) 
Heartbeat CPU 0 instructions: 1150000004 cycles: 400947031 heartbeat IPC: 2.4576 cumulative IPC: 2.50547 (Simulation time: 1 hr 20 min 9 sec) 
Heartbeat CPU 0 instructions: 1160000004 cycles: 404929459 heartbeat IPC: 2.51103 cumulative IPC: 2.50555 (Simulation time: 1 hr 20 min 47 sec) 
Heartbeat CPU 0 instructions: 1170000004 cycles: 408878934 heartbeat IPC: 2.53198 cumulative IPC: 2.50594 (Simulation time: 1 hr 21 min 24 sec) 
Heartbeat CPU 0 instructions: 1180000000 cycles: 412819928 heartbeat IPC: 2.53743 cumulative IPC: 2.5064 (Simulation time: 1 hr 22 min 1 sec) 
Heartbeat CPU 0 instructions: 1190000003 cycles: 416766610 heartbeat IPC: 2.53377 cumulative IPC: 2.50679 (Simulation time: 1 hr 22 min 40 sec) 
Heartbeat CPU 0 instructions: 1200000004 cycles: 420665851 heartbeat IPC: 2.5646 cumulative IPC: 2.5076 (Simulation time: 1 hr 23 min 18 sec) 
Heartbeat CPU 0 instructions: 1210000004 cycles: 424630590 heartbeat IPC: 2.52223 cumulative IPC: 2.5078 (Simulation time: 1 hr 23 min 55 sec) 
Heartbeat CPU 0 instructions: 1220000001 cycles: 428542412 heartbeat IPC: 2.55635 cumulative IPC: 2.50847 (Simulation time: 1 hr 24 min 33 sec) 
Heartbeat CPU 0 instructions: 1230000001 cycles: 432543714 heartbeat IPC: 2.49919 cumulative IPC: 2.50834 (Simulation time: 1 hr 25 min 13 sec) 
Heartbeat CPU 0 instructions: 1240000002 cycles: 436504770 heartbeat IPC: 2.52458 cumulative IPC: 2.50856 (Simulation time: 1 hr 25 min 57 sec) 
Heartbeat CPU 0 instructions: 1250000003 cycles: 440452609 heartbeat IPC: 2.53303 cumulative IPC: 2.50888 (Simulation time: 1 hr 26 min 36 sec) 
Heartbeat CPU 0 instructions: 1260000003 cycles: 444433523 heartbeat IPC: 2.51199 cumulative IPC: 2.50892 (Simulation time: 1 hr 27 min 14 sec) 
Heartbeat CPU 0 instructions: 1270000001 cycles: 448455837 heartbeat IPC: 2.48613 cumulative IPC: 2.50862 (Simulation time: 1 hr 27 min 53 sec) 
Heartbeat CPU 0 instructions: 1280000003 cycles: 452596900 heartbeat IPC: 2.41484 cumulative IPC: 2.50737 (Simulation time: 1 hr 28 min 32 sec) 
Heartbeat CPU 0 instructions: 1290000004 cycles: 456629828 heartbeat IPC: 2.47959 cumulative IPC: 2.50702 (Simulation time: 1 hr 29 min 9 sec) 
Heartbeat CPU 0 instructions: 1300000002 cycles: 460730545 heartbeat IPC: 2.4386 cumulative IPC: 2.50614 (Simulation time: 1 hr 29 min 48 sec) 
Heartbeat CPU 0 instructions: 1310000002 cycles: 464725466 heartbeat IPC: 2.50318 cumulative IPC: 2.5061 (Simulation time: 1 hr 30 min 27 sec) 
Heartbeat CPU 0 instructions: 1320000000 cycles: 468724644 heartbeat IPC: 2.50051 cumulative IPC: 2.50603 (Simulation time: 1 hr 31 min 5 sec) 
Heartbeat CPU 0 instructions: 1330000002 cycles: 472724701 heartbeat IPC: 2.49996 cumulative IPC: 2.50596 (Simulation time: 1 hr 31 min 44 sec) 
Heartbeat CPU 0 instructions: 1340000002 cycles: 476702250 heartbeat IPC: 2.51411 cumulative IPC: 2.50606 (Simulation time: 1 hr 32 min 22 sec) 
Heartbeat CPU 0 instructions: 1350000000 cycles: 480704950 heartbeat IPC: 2.49831 cumulative IPC: 2.50597 (Simulation time: 1 hr 33 min 0 sec) 
Heartbeat CPU 0 instructions: 1360000002 cycles: 484665850 heartbeat IPC: 2.52468 cumulative IPC: 2.50618 (Simulation time: 1 hr 33 min 38 sec) 
Heartbeat CPU 0 instructions: 1370000001 cycles: 488677620 heartbeat IPC: 2.49267 cumulative IPC: 2.50603 (Simulation time: 1 hr 34 min 17 sec) 
Heartbeat CPU 0 instructions: 1380000001 cycles: 492711696 heartbeat IPC: 2.47888 cumulative IPC: 2.50571 (Simulation time: 1 hr 34 min 55 sec) 
Heartbeat CPU 0 instructions: 1390000002 cycles: 496723054 heartbeat IPC: 2.49292 cumulative IPC: 2.50557 (Simulation time: 1 hr 35 min 34 sec) 
Heartbeat CPU 0 instructions: 1400000004 cycles: 500725961 heartbeat IPC: 2.49818 cumulative IPC: 2.50549 (Simulation time: 1 hr 36 min 12 sec) 
Heartbeat CPU 0 instructions: 1410000000 cycles: 504842489 heartbeat IPC: 2.42923 cumulative IPC: 2.50462 (Simulation time: 1 hr 36 min 51 sec) 
Heartbeat CPU 0 instructions: 1420000004 cycles: 508945287 heartbeat IPC: 2.43736 cumulative IPC: 2.50387 (Simulation time: 1 hr 37 min 57 sec) 
Heartbeat CPU 0 instructions: 1430000004 cycles: 513006102 heartbeat IPC: 2.46256 cumulative IPC: 2.50342 (Simulation time: 1 hr 39 min 7 sec) 
Heartbeat CPU 0 instructions: 1440000001 cycles: 517028908 heartbeat IPC: 2.48583 cumulative IPC: 2.50323 (Simulation time: 1 hr 40 min 0 sec) 
Heartbeat CPU 0 instructions: 1450000003 cycles: 521080289 heartbeat IPC: 2.46829 cumulative IPC: 2.50286 (Simulation time: 1 hr 40 min 40 sec) 
Heartbeat CPU 0 instructions: 1460000000 cycles: 543240205 heartbeat IPC: 0.451265 cumulative IPC: 2.38969 (Simulation time: 1 hr 43 min 30 sec) 
Heartbeat CPU 0 instructions: 1470000001 cycles: 555690436 heartbeat IPC: 0.803198 cumulative IPC: 2.342 (Simulation time: 1 hr 45 min 35 sec) 
Heartbeat CPU 0 instructions: 1480000000 cycles: 561238981 heartbeat IPC: 1.80227 cumulative IPC: 2.33486 (Simulation time: 1 hr 46 min 26 sec) 
Heartbeat CPU 0 instructions: 1490000004 cycles: 566931793 heartbeat IPC: 1.7566 cumulative IPC: 2.32713 (Simulation time: 1 hr 47 min 18 sec) 
Heartbeat CPU 0 instructions: 1500000000 cycles: 572463140 heartbeat IPC: 1.80788 cumulative IPC: 2.32046 (Simulation time: 1 hr 48 min 9 sec) 
Heartbeat CPU 0 instructions: 1510000003 cycles: 578120151 heartbeat IPC: 1.76772 cumulative IPC: 2.3133 (Simulation time: 1 hr 49 min 1 sec) 
Heartbeat CPU 0 instructions: 1520000004 cycles: 583775418 heartbeat IPC: 1.76826 cumulative IPC: 2.30633 (Simulation time: 1 hr 49 min 52 sec) 
Heartbeat CPU 0 instructions: 1530000002 cycles: 589278676 heartbeat IPC: 1.81711 cumulative IPC: 2.30032 (Simulation time: 1 hr 50 min 44 sec) 
Heartbeat CPU 0 instructions: 1540000001 cycles: 594973645 heartbeat IPC: 1.75594 cumulative IPC: 2.29348 (Simulation time: 1 hr 51 min 35 sec) 
Heartbeat CPU 0 instructions: 1550000000 cycles: 600623058 heartbeat IPC: 1.7701 cumulative IPC: 2.28704 (Simulation time: 1 hr 52 min 48 sec) 
Heartbeat CPU 0 instructions: 1560000004 cycles: 606217151 heartbeat IPC: 1.7876 cumulative IPC: 2.28103 (Simulation time: 1 hr 53 min 54 sec) 
Heartbeat CPU 0 instructions: 1570000004 cycles: 611849538 heartbeat IPC: 1.77545 cumulative IPC: 2.27497 (Simulation time: 1 hr 55 min 1 sec) 
Heartbeat CPU 0 instructions: 1580000001 cycles: 617397948 heartbeat IPC: 1.80232 cumulative IPC: 2.26946 (Simulation time: 1 hr 56 min 11 sec) 
Heartbeat CPU 0 instructions: 1590000003 cycles: 623068028 heartbeat IPC: 1.76364 cumulative IPC: 2.26351 (Simulation time: 1 hr 57 min 5 sec) 
Heartbeat CPU 0 instructions: 1600000000 cycles: 628610252 heartbeat IPC: 1.80433 cumulative IPC: 2.25828 (Simulation time: 1 hr 57 min 55 sec) 
Heartbeat CPU 0 instructions: 1610000001 cycles: 634217862 heartbeat IPC: 1.78329 cumulative IPC: 2.25288 (Simulation time: 1 hr 58 min 45 sec) 
Heartbeat CPU 0 instructions: 1620000004 cycles: 639725578 heartbeat IPC: 1.81564 cumulative IPC: 2.24804 (Simulation time: 1 hr 59 min 39 sec) 
Heartbeat CPU 0 instructions: 1630000002 cycles: 645368019 heartbeat IPC: 1.77228 cumulative IPC: 2.24271 (Simulation time: 2 hr 0 min 27 sec) 
Heartbeat CPU 0 instructions: 1640000000 cycles: 651021902 heartbeat IPC: 1.7687 cumulative IPC: 2.23745 (Simulation time: 2 hr 1 min 16 sec) 
Heartbeat CPU 0 instructions: 1650000000 cycles: 656564651 heartbeat IPC: 1.80416 cumulative IPC: 2.23279 (Simulation time: 2 hr 2 min 44 sec) 
Heartbeat CPU 0 instructions: 1660000000 cycles: 662204964 heartbeat IPC: 1.77295 cumulative IPC: 2.22781 (Simulation time: 2 hr 3 min 51 sec) 
Heartbeat CPU 0 instructions: 1670000001 cycles: 667736157 heartbeat IPC: 1.80793 cumulative IPC: 2.2234 (Simulation time: 2 hr 5 min 17 sec) 
Heartbeat CPU 0 instructions: 1680000002 cycles: 673399301 heartbeat IPC: 1.7658 cumulative IPC: 2.21853 (Simulation time: 2 hr 6 min 45 sec) 
Heartbeat CPU 0 instructions: 1690000000 cycles: 678920064 heartbeat IPC: 1.81134 cumulative IPC: 2.21434 (Simulation time: 2 hr 8 min 14 sec) 
Heartbeat CPU 0 instructions: 1700000004 cycles: 684500176 heartbeat IPC: 1.79208 cumulative IPC: 2.21 (Simulation time: 2 hr 9 min 41 sec) 
Heartbeat CPU 0 instructions: 1710000000 cycles: 690076948 heartbeat IPC: 1.79315 cumulative IPC: 2.20577 (Simulation time: 2 hr 10 min 48 sec) 
Heartbeat CPU 0 instructions: 1720000004 cycles: 695516274 heartbeat IPC: 1.83846 cumulative IPC: 2.20216 (Simulation time: 2 hr 11 min 34 sec) 
Heartbeat CPU 0 instructions: 1730000004 cycles: 701084945 heartbeat IPC: 1.79576 cumulative IPC: 2.19811 (Simulation time: 2 hr 12 min 24 sec) 
Heartbeat CPU 0 instructions: 1740000003 cycles: 706541454 heartbeat IPC: 1.83267 cumulative IPC: 2.19459 (Simulation time: 2 hr 13 min 52 sec) 
Heartbeat CPU 0 instructions: 1750000001 cycles: 712117225 heartbeat IPC: 1.79347 cumulative IPC: 2.19067 (Simulation time: 2 hr 15 min 20 sec) 
Heartbeat CPU 0 instructions: 1760000002 cycles: 717608088 heartbeat IPC: 1.82121 cumulative IPC: 2.18714 (Simulation time: 2 hr 16 min 47 sec) 
Heartbeat CPU 0 instructions: 1770000000 cycles: 723252144 heartbeat IPC: 1.77178 cumulative IPC: 2.18311 (Simulation time: 2 hr 17 min 59 sec) 
Heartbeat CPU 0 instructions: 1780000002 cycles: 728760800 heartbeat IPC: 1.81533 cumulative IPC: 2.17966 (Simulation time: 2 hr 18 min 54 sec) 
Heartbeat CPU 0 instructions: 1790000004 cycles: 734420692 heartbeat IPC: 1.76682 cumulative IPC: 2.17572 (Simulation time: 2 hr 19 min 43 sec) 
Heartbeat CPU 0 instructions: 1800000000 cycles: 740012918 heartbeat IPC: 1.7882 cumulative IPC: 2.1721 (Simulation time: 2 hr 20 min 33 sec) 
Heartbeat CPU 0 instructions: 1810000002 cycles: 745505667 heartbeat IPC: 1.82058 cumulative IPC: 2.16891 (Simulation time: 2 hr 21 min 48 sec) 
Heartbeat CPU 0 instructions: 1820000000 cycles: 751075186 heartbeat IPC: 1.79549 cumulative IPC: 2.16549 (Simulation time: 2 hr 22 min 57 sec) 
Heartbeat CPU 0 instructions: 1830000001 cycles: 756552618 heartbeat IPC: 1.82567 cumulative IPC: 2.16247 (Simulation time: 2 hr 23 min 46 sec) 
Heartbeat CPU 0 instructions: 1840000003 cycles: 762107102 heartbeat IPC: 1.80035 cumulative IPC: 2.15923 (Simulation time: 2 hr 24 min 35 sec) 
Heartbeat CPU 0 instructions: 1850000001 cycles: 767590372 heartbeat IPC: 1.82373 cumulative IPC: 2.15629 (Simulation time: 2 hr 25 min 24 sec) 
Heartbeat CPU 0 instructions: 1860000001 cycles: 773204355 heartbeat IPC: 1.78127 cumulative IPC: 2.15296 (Simulation time: 2 hr 26 min 13 sec) 
Heartbeat CPU 0 instructions: 1870000003 cycles: 778831342 heartbeat IPC: 1.77715 cumulative IPC: 2.14964 (Simulation time: 2 hr 27 min 4 sec) 
Heartbeat CPU 0 instructions: 1880000003 cycles: 784406437 heartbeat IPC: 1.79369 cumulative IPC: 2.14655 (Simulation time: 2 hr 27 min 55 sec) 
Heartbeat CPU 0 instructions: 1890000004 cycles: 790025067 heartbeat IPC: 1.77979 cumulative IPC: 2.14337 (Simulation time: 2 hr 28 min 46 sec) 
Heartbeat CPU 0 instructions: 1900000003 cycles: 795568656 heartbeat IPC: 1.80389 cumulative IPC: 2.1405 (Simulation time: 2 hr 29 min 34 sec) 
Heartbeat CPU 0 instructions: 1910000000 cycles: 801227428 heartbeat IPC: 1.76717 cumulative IPC: 2.13729 (Simulation time: 2 hr 30 min 22 sec) 
Heartbeat CPU 0 instructions: 1920000001 cycles: 806818637 heartbeat IPC: 1.78852 cumulative IPC: 2.13436 (Simulation time: 2 hr 31 min 10 sec) 
Heartbeat CPU 0 instructions: 1930000003 cycles: 812344746 heartbeat IPC: 1.80959 cumulative IPC: 2.13169 (Simulation time: 2 hr 31 min 58 sec) 
Heartbeat CPU 0 instructions: 1940000002 cycles: 817940946 heartbeat IPC: 1.78693 cumulative IPC: 2.12883 (Simulation time: 2 hr 32 min 47 sec) 
Heartbeat CPU 0 instructions: 1950000000 cycles: 823448005 heartbeat IPC: 1.81585 cumulative IPC: 2.12631 (Simulation time: 2 hr 33 min 35 sec) 
Heartbeat CPU 0 instructions: 1960000001 cycles: 829081439 heartbeat IPC: 1.77512 cumulative IPC: 2.12343 (Simulation time: 2 hr 34 min 23 sec) 
Heartbeat CPU 0 instructions: 1970000002 cycles: 834636141 heartbeat IPC: 1.80028 cumulative IPC: 2.12084 (Simulation time: 2 hr 35 min 11 sec) 
Heartbeat CPU 0 instructions: 1980000001 cycles: 840292928 heartbeat IPC: 1.76779 cumulative IPC: 2.11798 (Simulation time: 2 hr 36 min 1 sec) 
Heartbeat CPU 0 instructions: 1990000000 cycles: 845796046 heartbeat IPC: 1.81715 cumulative IPC: 2.11563 (Simulation time: 2 hr 36 min 50 sec) 
*** Reached end of trace: traces/444.namd-33B.champsimtrace.xz
Heartbeat CPU 0 instructions: 2000000003 cycles: 851471192 heartbeat IPC: 1.76207 cumulative IPC: 2.1128 (Simulation time: 2 hr 37 min 39 sec) 
Finished CPU 0 instructions: 1500000002 cycles: 709956777 cumulative IPC: 2.1128 (Simulation time: 2 hr 37 min 39 sec) 

ChampSim completed all CPUs

Region of Interest Statistics

CPU 0 cumulative IPC: 2.1128 instructions: 1500000002 cycles: 709956777
cpu0_DTLB TOTAL     ACCESS:  275089777  HIT:  274990583  MISS:      99194
cpu0_DTLB LOAD      ACCESS:  221917851  HIT:  221833104  MISS:      84747
cpu0_DTLB RFO       ACCESS:   53171926  HIT:   53157479  MISS:      14447
cpu0_DTLB PREFETCH  ACCESS:          0  HIT:          0  MISS:          0
cpu0_DTLB WRITEBACK ACCESS:          0  HIT:          0  MISS:          0
cpu0_DTLB TRANSLATION ACCESS:          0  HIT:          0  MISS:          0
cpu0_DTLB PREFETCH  REQUESTED:          0  ISSUED:          0  USEFUL:          0  USELESS:          0
cpu0_DTLB AVERAGE MISS LATENCY: 21.5431 cycles
cpu0_ITLB TOTAL     ACCESS:   51021268  HIT:   51021243  MISS:         25
cpu0_ITLB LOAD      ACCESS:   51021268  HIT:   51021243  MISS:         25
cpu0_ITLB RFO       ACCESS:          0  HIT:          0  MISS:          0
cpu0_ITLB PREFETCH  ACCESS:          0  HIT:          0  MISS:          0
cpu0_ITLB WRITEBACK ACCESS:          0  HIT:          0  MISS:          0
cpu0_ITLB TRANSLATION ACCESS:          0  HIT:          0  MISS:          0
cpu0_ITLB PREFETCH  REQUESTED:          0  ISSUED:          0  USEFUL:          0  USELESS:          0
cpu0_ITLB AVERAGE MISS LATENCY: 247.04 cycles
cpu0_L1I TOTAL     ACCESS:   23657879  HIT:   23657550  MISS:        329
cpu0_L1I LOAD      ACCESS:   23657879  HIT:   23657550  MISS:        329
cpu0_L1I RFO       ACCESS:          0  HIT:          0  MISS:          0
cpu0_L1I PREFETCH  ACCESS:          0  HIT:          0  MISS:          0
cpu0_L1I WRITEBACK ACCESS:          0  HIT:          0  MISS:          0
cpu0_L1I TRANSLATION ACCESS:          0  HIT:          0  MISS:          0
cpu0_L1I PREFETCH  REQUESTED:          0  ISSUED:          0  USEFUL:          0  USELESS:          0
cpu0_L1I AVERAGE MISS LATENCY: 219.438 cycles
cpu0_STLB TOTAL     ACCESS:      99220  HIT:      93271  MISS:       5949
cpu0_STLB LOAD      ACCESS:      84773  HIT:      81353  MISS:       3420
cpu0_STLB RFO       ACCESS:      14447  HIT:      11918  MISS:       2529
cpu0_STLB PREFETCH  ACCESS:          0  HIT:          0  MISS:          0
cpu0_STLB WRITEBACK ACCESS:          0  HIT:          0  MISS:          0
cpu0_STLB TRANSLATION ACCESS:          0  HIT:          0  MISS:          0
cpu0_STLB PREFETCH  REQUESTED:          0  ISSUED:          0  USEFUL:          0  USELESS:          0
cpu0_STLB AVERAGE MISS LATENCY: 210.128 cycles
cpu0_L1D TOTAL     ACCESS:  303035813  HIT:  298485523  MISS:    4550290
cpu0_L1D LOAD      ACCESS:  219711574  HIT:  215529060  MISS:    4182514
cpu0_L1D RFO       ACCESS:   83319162  HIT:   82951950  MISS:     367212
cpu0_L1D PREFETCH  ACCESS:          0  HIT:          0  MISS:          0
cpu0_L1D WRITEBACK ACCESS:          0  HIT:          0  MISS:          0
cpu0_L1D TRANSLATION ACCESS:       5077  HIT:       4513  MISS:        564
cpu0_L1D PREFETCH  REQUESTED:          0  ISSUED:          0  USEFUL:          0  USELESS:          0
cpu0_L1D AVERAGE MISS LATENCY: 91.2762 cycles
cpu0_L2C TOTAL     ACCESS:    5625762  HIT:    5190274  MISS:     435488
cpu0_L2C LOAD      ACCESS:    4182517  HIT:    3901102  MISS:     281415
cpu0_L2C RFO       ACCESS:     367071  HIT:     213059  MISS:     154012
cpu0_L2C PREFETCH  ACCESS:          0  HIT:          0  MISS:          0
cpu0_L2C WRITEBACK ACCESS:    1075610  HIT:    1075591  MISS:         19
cpu0_L2C TRANSLATION ACCESS:        564  HIT:        522  MISS:         42
cpu0_L2C PREFETCH  REQUESTED:          0  ISSUED:          0  USEFUL:          0  USELESS:          0
cpu0_L2C AVERAGE MISS LATENCY: 838.908 cycles
LLC TOTAL     ACCESS:     614487  HIT:     220178  MISS:     394309
LLC LOAD      ACCESS:     281415  HIT:      36184  MISS:     245231
LLC RFO       ACCESS:     154003  HIT:       5031  MISS:     148972
LLC PREFETCH  ACCESS:          0  HIT:          0  MISS:          0
LLC WRITEBACK ACCESS:     179027  HIT:     178941  MISS:         86
LLC TRANSLATION ACCESS:         42  HIT:         22  MISS:         20
LLC PREFETCH  REQUESTED:          0  ISSUED:          0  USEFUL:          0  USELESS:          0
LLC AVERAGE MISS LATENCY: 903.326 cycles
~~~~~~~~~~Reuse Distance Profiler output~~~~~~~~~~
0	26876144	13630592
1	32581616	20134368
2	47726016	28084320
3	33273648	24218736
4	30293808	24930928
5	24964640	21022880
6	16855856	15428416
7	11967040	11346672
8	12839360	9084544
9	9384832	6608688
10	6042976	5041920
11	7590096	6417520
12	5418400	3677664
13	4328832	2604208
14	4185728	2714576
15	4936032	3889328
16	3344016	2293744
17	2495440	1912576
18	3221232	2851280
19	3594352	3148544
20	1537040	1072080
21	1584944	770928
22	3024208	648848
23	2896944	1047424
24	3379184	1254128
25	4472928	2622832
26	3679408	2420176
27	8150656	6585968
28	5758912	4847856
29	3853760	3211456
30	4153664	2754080
31	4120912	3222496
32	3858704	3245088
33	3856992	2898112
34	3096368	2299872
35	3116528	2782688
36	3476304	2690272
37	1229472	1071136
38	257392	133392
39	196704	100320
40	166144	90896
41	182656	121216
42	197648	133408
43	194736	102256
44	217520	90576
45	221152	125024
46	126960	53568
47	89696	27712
48	90272	22816
49	98944	26736
50	98112	31216
51	96288	40752
52	110192	55728
53	83360	51968
54	106416	88496
55	390112	376704
56	504080	493712
57	266672	257888
58	170992	163984
59	140256	125248
60	115888	101104
61	85952	79216
62	63328	56528
63	74768	67104
64	278352	267072
66	169520	158944
68	118160	106688
70	133936	100352
72	301456	268288
74	36112	28704
76	61792	29408
78	70768	40112
80	68736	59968
82	218080	196976
84	369504	362288
86	221456	216176
88	177488	173152
90	168912	164800
92	130096	126352
94	100016	96464
96	129728	126464
98	111984	109072
100	69984	66848
102	56752	53744
104	47168	44624
106	46128	43456
108	160864	157680
110	82640	79696
112	49184	46672
114	44144	41920
116	28480	26480
118	24032	21680
120	25840	23664
122	29600	28240
124	27920	26192
126	28080	26064
128	52656	49760
132	38384	35504
136	47136	43680
140	61616	58960
144	73984	71424
148	35040	32736
152	35040	32496
156	31952	29872
160	33632	31760
164	38080	36272
168	52176	50320
172	32624	31024
176	26496	24880
180	56288	54624
184	28608	27536
188	29440	28016
192	34736	33424
196	45760	44256
200	34864	33648
204	24160	23136
208	26880	25744
212	29552	28592
216	48176	47232
220	35408	34352
224	40016	39088
228	40000	38928
232	24064	23296
236	23744	22992
240	22640	21776
244	29392	28528
248	32528	31904
252	56816	56016
256	77040	75008
264	42608	40688
272	56176	54496
280	85120	83360
288	70576	69104
296	46896	45328
304	63424	61728
312	75696	74224
320	55568	54160
328	59088	57792
336	75952	74656
344	67168	66064
352	52944	51904
360	71984	70736
368	71168	69824
376	57792	56512
384	56976	55632
392	65296	64160
400	73840	72896
408	60256	59056
416	65056	63920
424	67792	66560
432	65328	63968
440	65568	64672
448	71024	70176
456	67568	66560
464	53040	51968
472	78640	77616
480	74224	73152
488	61856	61008
496	57456	56480
504	77312	76240
512	143872	142064
528	134976	133104
544	137840	136128
560	143408	141744
576	143664	142080
592	142048	140336
608	148688	146912
624	145696	143712
640	152624	150944
656	167744	166144
672	192448	190544
688	284768	281840
704	507728	502976
720	448256	444272
736	410960	407552
752	367632	364240
768	448336	444384
784	422848	418640
800	237136	234640
816	630448	624976
832	597120	591984
848	944704	938016
864	721648	716144
880	480000	476464
896	325104	322256
912	410256	406768
928	327920	324240
944	238656	236272
960	220816	218992
976	408176	404624
992	217648	215216
1008	294176	291344
1024	400624	396272
1056	364992	360448
1088	350688	345440
1120	345408	340944
1152	404992	399360
1184	525760	519344
1216	519552	512720
1248	618864	611520
1280	1161648	1151136
1312	1250928	1240016
1344	787440	779600
1376	696896	690304
1408	489440	483072
1440	434240	428496
1472	413184	407568
1504	610496	603136
1536	458688	452656
1568	458528	452784
1600	633424	626912
1632	409376	403392
1664	316192	311008
1696	313920	309152
1728	288768	283440
1760	261392	256192
1792	247280	242256
1824	242176	237136
1856	231808	226976
1888	230096	225744
1920	224112	219024
1952	214208	209792
1984	216880	212336
2016	208016	203936
2048	412992	404064
2112	411056	402096
2176	394720	386144
2240	381920	372912
2304	373840	365840
2368	369120	361152
2432	357440	348960
2496	346944	338448
2560	354992	346416
2624	340544	332784
2688	331264	323360
2752	330256	322704
2816	324768	316832
2880	317328	309008
2944	314528	306256
3008	312656	304448
3072	306656	298816
3136	298544	291136
3200	298000	290656
3264	289712	282336
3328	286720	279408
3392	288048	281248
3456	277664	270784
3520	269040	262048
3584	268336	260528
3648	263776	256736
3712	260032	253152
3776	254736	247904
3840	255328	248608
3904	254896	248288
3968	246464	239952
4032	244576	237392
4096	479616	466688
4224	468384	456016
4352	454752	442064
4480	441744	430288
4608	427216	416048
4736	428192	417168
4864	415376	403776
4992	402928	392448
5120	402160	392512
5248	384448	374192
5376	368560	358592
5504	365024	355424
5632	360416	351184
5760	350976	341936
5888	337904	329088
6016	327888	318496
6144	322912	314176
6272	313744	305584
6400	305872	297984
6528	299664	291888
6656	298880	291392
6784	286128	278128
6912	279792	272528
7040	275792	268544
7168	266720	260000
7296	259200	252544
7424	247648	241312
7552	248576	241456
7680	238512	231712
7808	232864	226960
7936	225872	219664
8064	222448	216720
8192	419296	407680
8448	392352	380832
8704	375408	365408
8960	360496	351632
9216	341296	332304
9472	323808	315408
9728	306992	299296
9984	287696	281024
10240	274096	267328
10496	261728	255584
10752	250528	245104
11008	228848	223184
11264	217728	212656
11520	205872	200832
11776	194640	190288
12032	183312	179520
12288	168672	164320
12544	156576	152336
12800	156976	153328
13056	144880	141968
13312	136656	133312
13568	129280	126304
13824	120384	117472
14080	116608	113392
14336	113696	111248
14592	108928	105936
14848	107424	104192
15104	100320	97216
15360	99008	95568
15616	94928	91456
15872	94320	91824
16128	88656	85744
16384	163744	159136
16896	159488	155600
17408	140944	138064
17920	139632	136400
18432	126320	123408
18944	122624	119424
19456	110848	108048
19968	105664	102896
20480	103824	101024
20992	98304	95888
21504	93552	91104
22016	90688	88176
22528	88288	85952
23040	80240	77808
23552	78624	76160
24064	73456	71280
24576	73568	71568
25088	69376	67120
25600	63104	60672
26112	60832	59008
26624	62368	60304
27136	54272	52352
27648	52720	51104
28160	50480	48624
28672	51264	49472
29184	46048	44368
29696	44800	43472
30208	42448	41312
30720	39760	38064
31232	40448	39088
31744	38608	37344
32256	34800	33328
32768	68064	65680
33792	63296	61488
34816	56736	54672
35840	55024	52880
36864	47712	45616
37888	46000	44096
38912	41392	39968
39936	40704	38816
40960	36800	35664
41984	35744	34256
43008	32544	31440
44032	30272	28976
45056	31488	30224
46080	29424	28368
47104	27472	26448
48128	25792	25120
49152	23472	22672
50176	23568	22672
51200	23088	22432
52224	22096	21360
53248	21744	21040
54272	20208	19488
55296	18896	18304
56320	17760	17200
57344	17280	16624
58368	17360	16864
59392	16656	16016
60416	16368	15824
61440	15968	15248
62464	14288	13792
63488	13776	13232
64512	14000	13456
65536	27952	26864
67584	25136	24176
69632	23136	22400
71680	23088	22432
73728	22704	21920
75776	20960	19648
77824	19072	18080
79872	19536	18448
81920	17840	17040
83968	16096	15456
86016	16032	15440
88064	14816	14032
90112	15584	13504
92160	16976	13824
94208	14960	12576
96256	13072	11968
98304	12944	12272
100352	12000	11408
102400	11184	10704
104448	10448	10064
106496	10048	9344
108544	10288	9696
110592	9584	9024
112640	9904	9488
114688	9104	8848
116736	8656	8400
118784	8000	7664
120832	8224	7936
122880	7072	6864
124928	7488	7344
126976	7264	7072
129024	6624	6448
131072	13792	13248
135168	12480	12176
139264	11312	10944
143360	11136	10736
147456	10368	10000
151552	10320	9840
155648	9904	9568
159744	9008	8640
163840	8656	8384
167936	8512	8288
172032	8352	8112
176128	8464	8208
180224	6736	6576
184320	7808	7632
188416	6752	6576
192512	7280	7104
196608	6176	6032
200704	6080	5824
204800	5840	5632
208896	5584	5360
212992	6304	6176
217088	6704	6528
221184	5904	5680
225280	5056	4880
229376	4704	4576
233472	4528	4352
237568	4400	4208
241664	4368	4176
245760	4784	4640
249856	4144	3968
253952	3840	3744
258048	3696	3600
262144	8032	7744
270336	6976	6832
278528	7104	6640
286720	6384	6176
294912	6016	5840
303104	5776	5632
311296	5584	5312
319488	5712	5632
327680	6144	6000
335872	5104	4896
344064	5536	5392
352256	5536	5456
360448	5824	5680
368640	4608	4448
376832	5936	5776
385024	5392	5248
393216	5168	5088
401408	4608	4480
409600	4736	4624
417792	4656	4496
425984	5104	5008
434176	4528	4400
442368	4144	4032
450560	5360	5280
458752	3776	3744
466944	4064	4016
475136	4160	4080
483328	4032	3920
491520	3872	3808
499712	3408	3344
507904	3984	3920
516096	3536	3472
524288	6576	6384
540672	5904	5776
557056	6352	6208
573440	5568	5424
589824	5808	5776
606208	6048	5968
622592	4528	4416
638976	4848	4784
655360	4816	4736
671744	4592	4560
688128	3984	3888
704512	4560	4448
720896	4240	4160
737280	3584	3536
753664	4032	3904
770048	3568	3488
786432	3552	3504
802816	4448	4320
819200	4096	4000
835584	4048	4032
851968	3600	3552
868352	4064	3968
884736	3808	3776
901120	3296	3200
917504	2496	2416
933888	2080	2032
950272	2688	2672
966656	2128	2112
983040	2224	2160
999424	1840	1808
1015808	1888	1856
1032192	1776	1760
1048576	4144	4080
1081344	3808	3728
1114112	3456	3344
1146880	3904	3872
1179648	5504	5392
1212416	4464	4400
1245184	4976	4928
1277952	4864	4848
1310720	6224	6160
1343488	6704	6592
1376256	6336	6320
1409024	6384	6320
1441792	5648	5616
1474560	6320	6272
1507328	5488	5488
1540096	4304	4240
1572864	4128	4064
1605632	4544	4480
1638400	4976	4928
1671168	4352	4336
1703936	2256	2176
1736704	2656	2608
1769472	2480	2400
1802240	2048	2032
1835008	2208	2160
1867776	5760	1776
1900544	14688	1888
1933312	16032	1424
1966080	17040	1888
1998848	14064	1200
2031616	10608	1392
2064384	1152	1120
2097152	4240	4192
2162688	4656	4592
2228224	4528	4368
2293760	4528	4480
2359296	2400	2320
2424832	3360	3280
2490368	2464	2320
2555904	2080	1952
2621440	1808	1728
2686976	2016	1920
2752512	1584	1552
2818048	1296	1232
2883584	1488	1392
2949120	1600	1552
3014656	1328	1232
3080192	1200	1168
3145728	1184	1152
3211264	1552	1520
3276800	1216	1200
3342336	1136	1136
3407872	848	784
3473408	656	608
3538944	1376	1280
3604480	864	816
3670016	1248	1216
3735552	1088	1088
3801088	1408	1392
3866624	1072	1072
3932160	816	800
3997696	1216	1184
4063232	1168	1152
4128768	752	736
4194304	1600	1568
4325376	1504	1440
4456448	944	944
4587520	1664	1664
4718592	3184	3152
4849664	2448	2432
4980736	3744	3744
5111808	2080	2080
5242880	1056	1056
5373952	992	992
5505024	736	720
5636096	576	560
5767168	400	400
5898240	528	512
6029312	784	784
6160384	368	368
6291456	416	400
6422528	1280	1264
6553600	896	880
6684672	1168	1168
6815744	608	592
6946816	1056	1056
7077888	928	928
7208960	384	384
7340032	448	448
7471104	448	448
7602176	960	960
7733248	704	704
7864320	208	208
7995392	512	496
8126464	144	144
8257536	976	976
8388608	960	960
8650752	1472	1472
8912896	864	848
9175040	2336	2320
9437184	1104	1104
9699328	1872	1872
9961472	3568	3568
10223616	1584	1552
10485760	640	624
10747904	1296	1296
11010048	2016	2016
11272192	1488	1472
11534336	1184	1184
11796480	1104	1088
12058624	2880	2880
12320768	928	928
12582912	912	896
12845056	240	240
13107200	464	464
13369344	288	288
13631488	176	176
13893632	80	80
14155776	160	112
14417920	160	144
14680064	816	816
14942208	896	896
15204352	176	160
15466496	304	304
15728640	1248	1248
15990784	384	384
16252928	560	560
16515072	384	384
16777216	768	752
17301504	1760	1760
17825792	992	992
18350080	1616	1616
18874368	1040	1024
19398656	1392	1392
19922944	688	688
20447232	2096	2096
20971520	944	944
21495808	1152	1152
22020096	976	976
22544384	736	736
23068672	1088	1088
23592960	896	896
24117248	640	640
24641536	656	656
25165824	336	336
25690112	512	512
26214400	432	432
26738688	464	464
27262976	208	208
27787264	272	272
28311552	288	288
28835840	1328	1328
29360128	272	272
29884416	752	752
30408704	1104	1104
30932992	16	16
31457280	80	80
31981568	608	608
32505856	512	512
33030144	384	384
33554432	1536	1536
34603008	432	432
35651584	1184	1184
36700160	1264	1264
37748736	928	928
38797312	432	432
39845888	1072	1072
40894464	400	400
41943040	672	672
42991616	496	496
44040192	848	832
45088768	592	592
46137344	352	336
47185920	1536	1536
48234496	992	992
49283072	672	672
50331648	880	880
51380224	528	528
52428800	448	448
53477376	672	672
54525952	336	336
55574528	368	368
56623104	848	848
57671680	768	768
58720256	976	976
59768832	288	288
60817408	944	928
61865984	368	368
62914560	768	768
63963136	64	64
65011712	544	544
66060288	128	112
67108864	1376	1376
69206016	1216	1216
71303168	768	768
73400320	496	496
75497472	848	848
77594624	608	608
79691776	272	272
81788928	672	672
83886080	256	256
85983232	1136	1136
88080384	624	624
90177536	304	304
92274688	688	688
94371840	832	832
96468992	432	432
98566144	800	800
100663296	432	432
102760448	624	624
104857600	752	752
106954752	560	560
109051904	912	912
111149056	720	720
113246208	784	784
115343360	624	624
117440512	176	176
119537664	640	640
121634816	864	864
123731968	720	720
125829120	640	640
127926272	384	384
130023424	256	256
132120576	864	864
134217728	896	896
138412032	1344	1344
142606336	656	656
146800640	2048	2048
150994944	1296	1296
155189248	272	272
159383552	944	944
163577856	800	800
167772160	368	368
171966464	288	288
176160768	912	912
180355072	944	944
184549376	1264	1264
188743680	816	816
192937984	464	464
197132288	144	144
201326592	624	624
205520896	112	112
209715200	576	576
213909504	320	320
218103808	112	112
222298112	560	560
226492416	80	80
230686720	64	64
234881024	592	592
239075328	80	80
243269632	96	96
247463936	544	544
251658240	128	128
255852544	48	48
260046848	384	384
264241152	48	48
268435456	480	480
276824064	144	144
285212672	512	512
293601280	544	544
301989888	128	128
310378496	0	0
318767104	0	0
327155712	0	0
335544320	0	0
343932928	0	0
352321536	0	0
360710144	0	0
369098752	0	0
377487360	0	0
385875968	0	0
394264576	0	0
402653184	0	0
411041792	0	0
419430400	0	0
427819008	0	0
436207616	0	0
444596224	0	0
452984832	0	0
461373440	0	0
469762048	0	0
478150656	0	0
486539264	0	0
494927872	0	0
503316480	0	0
511705088	0	0
520093696	0	0
528482304	0	0
536870912	0	0
553648128	0	0
570425344	0	0
587202560	0	0
603979776	0	0
620756992	0	0
637534208	0	0
654311424	0	0
671088640	0	0
687865856	0	0
704643072	0	0
721420288	0	0
738197504	0	0
754974720	0	0
771751936	0	0
788529152	0	0
805306368	0	0
822083584	0	0
838860800	0	0
855638016	0	0
872415232	0	0
889192448	0	0
905969664	0	0
922746880	0	0
939524096	0	0
956301312	0	0
973078528	0	0
989855744	0	0
1006632960	0	0
1023410176	0	0
1040187392	0	0
1056964608	0	0
1073741824	0	0
1107296256	0	0
1140850688	0	0
1174405120	0	0
1207959552	0	0
1241513984	0	0
1275068416	0	0
1308622848	0	0
1342177280	0	0
1375731712	0	0
1409286144	0	0
1442840576	0	0
1476395008	0	0
1509949440	0	0
1543503872	0	0
1577058304	0	0
1610612736	0	0
1644167168	0	0
1677721600	0	0
1711276032	0	0
1744830464	0	0
1778384896	0	0
1811939328	0	0
1845493760	0	0
1879048192	0	0
1912602624	0	0
1946157056	0	0
1979711488	0	0
2013265920	0	0
2046820352	0	0
2080374784	0	0
2113929216	0	0
2147483648	0	0
2214592512	0	0
2281701376	0	0
2348810240	0	0
2415919104	0	0
2483027968	0	0
2550136832	0	0
2617245696	0	0
2684354560	0	0
2751463424	0	0
2818572288	0	0
2885681152	0	0
2952790016	0	0
3019898880	0	0
3087007744	0	0
3154116608	0	0
3221225472	0	0
3288334336	0	0
3355443200	0	0
3422552064	0	0
3489660928	0	0
3556769792	0	0
3623878656	0	0
3690987520	0	0
3758096384	0	0
3825205248	0	0
3892314112	0	0
3959422976	0	0
4026531840	0	0
4093640704	0	0
4160749568	0	0
4227858432	0	0
~~~~~~~~~~Reuse Distance Profiler output end~~~~~~~~~~

DRAM Statistics
 CHANNEL 0
 RQ ROW_BUFFER_HIT:      20519  ROW_BUFFER_MISS:     373682
 DBUS AVG_CONGESTED_CYCLE:    3.98088
 WQ ROW_BUFFER_HIT:      12106  ROW_BUFFER_MISS:     144393  FULL:          0


CPU 0 Branch Prediction Accuracy: 94.7718% MPKI: 2.4587 Average ROB Occupancy at Mispredict: 89.5161
Branch type MPKI
BRANCH_DIRECT_JUMP: 3.8e-05
BRANCH_INDIRECT: 8.66667e-06
BRANCH_CONDITIONAL: 2.45858
BRANCH_DIRECT_CALL: 3.06667e-05
BRANCH_INDIRECT_CALL: 1e-05
BRANCH_RETURN: 3.2e-05

