
*** ChampSim Multicore Out-of-Order Simulator ***

Warmup Instructions: 500000000
Simulation Instructions: 1500000000
Number of CPUs: 1
Off-chip DRAM Size: 4 GiB Channels: 1 Width: 64-bit Data Rate: 3200 MT/s

VirtualMemory physical capacity: 8588881920 num_ppages: 2096895
VirtualMemory page size: 4096 log2_page_size: 12

CPU 0 runs traces/444.namd-426B.champsimtrace.xz
CPU 0 Bimodal branch predictor
Basic BTB sets: 1024 ways: 8 indirect buffer size: 4096 RAS size: 64
Initializing LRU.
Initializing LRU.
Initializing LRU.
Initializing LRU.
Initializing rdLRU.
Initializing LRU.
Initializing LRU.
Heartbeat CPU 0 instructions: 10000000 cycles: 2854198 heartbeat IPC: 3.50361 cumulative IPC: 3.50361 (Simulation time: 0 hr 1 min 7 sec) 
Heartbeat CPU 0 instructions: 20000004 cycles: 5586467 heartbeat IPC: 3.65996 cumulative IPC: 3.58008 (Simulation time: 0 hr 1 min 50 sec) 
Heartbeat CPU 0 instructions: 30000002 cycles: 8334914 heartbeat IPC: 3.63842 cumulative IPC: 3.59932 (Simulation time: 0 hr 2 min 47 sec) 
Heartbeat CPU 0 instructions: 40000002 cycles: 11144218 heartbeat IPC: 3.5596 cumulative IPC: 3.58931 (Simulation time: 0 hr 3 min 26 sec) 
Heartbeat CPU 0 instructions: 50000004 cycles: 13962387 heartbeat IPC: 3.5484 cumulative IPC: 3.58105 (Simulation time: 0 hr 4 min 4 sec) 
Heartbeat CPU 0 instructions: 60000003 cycles: 16744143 heartbeat IPC: 3.59485 cumulative IPC: 3.58334 (Simulation time: 0 hr 4 min 42 sec) 
Heartbeat CPU 0 instructions: 70000003 cycles: 19518644 heartbeat IPC: 3.60425 cumulative IPC: 3.58631 (Simulation time: 0 hr 5 min 20 sec) 
Heartbeat CPU 0 instructions: 80000003 cycles: 22282574 heartbeat IPC: 3.61804 cumulative IPC: 3.59025 (Simulation time: 0 hr 5 min 58 sec) 
Heartbeat CPU 0 instructions: 90000003 cycles: 24968677 heartbeat IPC: 3.72287 cumulative IPC: 3.60452 (Simulation time: 0 hr 6 min 35 sec) 
Heartbeat CPU 0 instructions: 100000002 cycles: 27861286 heartbeat IPC: 3.45709 cumulative IPC: 3.58921 (Simulation time: 0 hr 7 min 14 sec) 
Heartbeat CPU 0 instructions: 110000002 cycles: 30645229 heartbeat IPC: 3.59203 cumulative IPC: 3.58947 (Simulation time: 0 hr 7 min 52 sec) 
Heartbeat CPU 0 instructions: 120000001 cycles: 33434966 heartbeat IPC: 3.58457 cumulative IPC: 3.58906 (Simulation time: 0 hr 8 min 30 sec) 
Heartbeat CPU 0 instructions: 130000000 cycles: 36292997 heartbeat IPC: 3.49891 cumulative IPC: 3.58196 (Simulation time: 0 hr 9 min 10 sec) 
Heartbeat CPU 0 instructions: 140000000 cycles: 39042271 heartbeat IPC: 3.63732 cumulative IPC: 3.58586 (Simulation time: 0 hr 9 min 48 sec) 
Heartbeat CPU 0 instructions: 150000001 cycles: 41902177 heartbeat IPC: 3.49662 cumulative IPC: 3.57977 (Simulation time: 0 hr 10 min 27 sec) 
Heartbeat CPU 0 instructions: 160000004 cycles: 44652356 heartbeat IPC: 3.63613 cumulative IPC: 3.58324 (Simulation time: 0 hr 11 min 6 sec) 
Heartbeat CPU 0 instructions: 170000000 cycles: 47485714 heartbeat IPC: 3.52938 cumulative IPC: 3.58002 (Simulation time: 0 hr 11 min 46 sec) 
Heartbeat CPU 0 instructions: 180000001 cycles: 50207838 heartbeat IPC: 3.6736 cumulative IPC: 3.5851 (Simulation time: 0 hr 12 min 48 sec) 
Heartbeat CPU 0 instructions: 190000004 cycles: 52979435 heartbeat IPC: 3.60803 cumulative IPC: 3.5863 (Simulation time: 0 hr 13 min 56 sec) 
Heartbeat CPU 0 instructions: 200000000 cycles: 55795765 heartbeat IPC: 3.55072 cumulative IPC: 3.5845 (Simulation time: 0 hr 15 min 6 sec) 
Heartbeat CPU 0 instructions: 210000001 cycles: 58588004 heartbeat IPC: 3.58136 cumulative IPC: 3.58435 (Simulation time: 0 hr 15 min 49 sec) 
Heartbeat CPU 0 instructions: 220000002 cycles: 61370571 heartbeat IPC: 3.5938 cumulative IPC: 3.58478 (Simulation time: 0 hr 16 min 27 sec) 
Heartbeat CPU 0 instructions: 230000000 cycles: 64229851 heartbeat IPC: 3.49738 cumulative IPC: 3.58089 (Simulation time: 0 hr 17 min 6 sec) 
Heartbeat CPU 0 instructions: 240000000 cycles: 66961141 heartbeat IPC: 3.66127 cumulative IPC: 3.58417 (Simulation time: 0 hr 17 min 42 sec) 
Heartbeat CPU 0 instructions: 250000003 cycles: 69803301 heartbeat IPC: 3.51845 cumulative IPC: 3.58149 (Simulation time: 0 hr 18 min 20 sec) 
Heartbeat CPU 0 instructions: 260000003 cycles: 72573206 heartbeat IPC: 3.61023 cumulative IPC: 3.58259 (Simulation time: 0 hr 18 min 57 sec) 
Heartbeat CPU 0 instructions: 270000000 cycles: 75432555 heartbeat IPC: 3.4973 cumulative IPC: 3.57936 (Simulation time: 0 hr 19 min 35 sec) 
Heartbeat CPU 0 instructions: 280000002 cycles: 78198304 heartbeat IPC: 3.61566 cumulative IPC: 3.58064 (Simulation time: 0 hr 20 min 23 sec) 
Heartbeat CPU 0 instructions: 290000001 cycles: 81023253 heartbeat IPC: 3.53989 cumulative IPC: 3.57922 (Simulation time: 0 hr 21 min 1 sec) 
Heartbeat CPU 0 instructions: 300000003 cycles: 83868914 heartbeat IPC: 3.51412 cumulative IPC: 3.57701 (Simulation time: 0 hr 21 min 53 sec) 
Heartbeat CPU 0 instructions: 310000003 cycles: 86628485 heartbeat IPC: 3.62375 cumulative IPC: 3.5785 (Simulation time: 0 hr 22 min 30 sec) 
Heartbeat CPU 0 instructions: 320000003 cycles: 89499647 heartbeat IPC: 3.48291 cumulative IPC: 3.57543 (Simulation time: 0 hr 23 min 9 sec) 
Heartbeat CPU 0 instructions: 330000000 cycles: 92253665 heartbeat IPC: 3.63106 cumulative IPC: 3.57709 (Simulation time: 0 hr 23 min 51 sec) 
Heartbeat CPU 0 instructions: 340000002 cycles: 95074046 heartbeat IPC: 3.54562 cumulative IPC: 3.57616 (Simulation time: 0 hr 24 min 36 sec) 
Heartbeat CPU 0 instructions: 350000002 cycles: 97874422 heartbeat IPC: 3.57095 cumulative IPC: 3.57601 (Simulation time: 0 hr 25 min 21 sec) 
Heartbeat CPU 0 instructions: 360000002 cycles: 100772390 heartbeat IPC: 3.45069 cumulative IPC: 3.57241 (Simulation time: 0 hr 26 min 15 sec) 
Heartbeat CPU 0 instructions: 370000002 cycles: 103511879 heartbeat IPC: 3.65032 cumulative IPC: 3.57447 (Simulation time: 0 hr 27 min 3 sec) 
Heartbeat CPU 0 instructions: 380000000 cycles: 106382315 heartbeat IPC: 3.48379 cumulative IPC: 3.57202 (Simulation time: 0 hr 27 min 42 sec) 
Heartbeat CPU 0 instructions: 390000003 cycles: 109110783 heartbeat IPC: 3.66506 cumulative IPC: 3.57435 (Simulation time: 0 hr 28 min 18 sec) 
Heartbeat CPU 0 instructions: 400000002 cycles: 111862645 heartbeat IPC: 3.6339 cumulative IPC: 3.57581 (Simulation time: 0 hr 28 min 55 sec) 
Heartbeat CPU 0 instructions: 410000003 cycles: 114595174 heartbeat IPC: 3.65961 cumulative IPC: 3.57781 (Simulation time: 0 hr 29 min 31 sec) 
Heartbeat CPU 0 instructions: 420000003 cycles: 117347579 heartbeat IPC: 3.63319 cumulative IPC: 3.57911 (Simulation time: 0 hr 30 min 8 sec) 
Heartbeat CPU 0 instructions: 430000003 cycles: 120116501 heartbeat IPC: 3.61151 cumulative IPC: 3.57986 (Simulation time: 0 hr 30 min 45 sec) 
Heartbeat CPU 0 instructions: 440000000 cycles: 122842600 heartbeat IPC: 3.66824 cumulative IPC: 3.58182 (Simulation time: 0 hr 31 min 20 sec) 
Heartbeat CPU 0 instructions: 450000002 cycles: 125615152 heartbeat IPC: 3.60679 cumulative IPC: 3.58237 (Simulation time: 0 hr 31 min 56 sec) 
Heartbeat CPU 0 instructions: 460000003 cycles: 128367815 heartbeat IPC: 3.63285 cumulative IPC: 3.58345 (Simulation time: 0 hr 32 min 33 sec) 
Heartbeat CPU 0 instructions: 470000000 cycles: 131133223 heartbeat IPC: 3.6161 cumulative IPC: 3.58414 (Simulation time: 0 hr 33 min 11 sec) 
Heartbeat CPU 0 instructions: 480000003 cycles: 133866319 heartbeat IPC: 3.65886 cumulative IPC: 3.58567 (Simulation time: 0 hr 33 min 48 sec) 
Heartbeat CPU 0 instructions: 490000002 cycles: 136629333 heartbeat IPC: 3.61924 cumulative IPC: 3.58635 (Simulation time: 0 hr 34 min 26 sec) 
Heartbeat CPU 0 instructions: 500000001 cycles: 139369276 heartbeat IPC: 3.64971 cumulative IPC: 3.58759 (Simulation time: 0 hr 35 min 3 sec) 

Warmup complete CPU 0 instructions: 500000001 cycles: 139369276 (Simulation time: 0 hr 35 min 3 sec) 

Heartbeat CPU 0 instructions: 510000004 cycles: 144090117 heartbeat IPC: 2.11827 cumulative IPC: 2.11827 (Simulation time: 0 hr 35 min 47 sec) 
Heartbeat CPU 0 instructions: 520000000 cycles: 148928647 heartbeat IPC: 2.06674 cumulative IPC: 2.09219 (Simulation time: 0 hr 36 min 33 sec) 
Heartbeat CPU 0 instructions: 530000004 cycles: 153728325 heartbeat IPC: 2.08347 cumulative IPC: 2.08928 (Simulation time: 0 hr 37 min 18 sec) 
Heartbeat CPU 0 instructions: 540000001 cycles: 158494387 heartbeat IPC: 2.09817 cumulative IPC: 2.09149 (Simulation time: 0 hr 38 min 4 sec) 
Heartbeat CPU 0 instructions: 550000003 cycles: 163273250 heartbeat IPC: 2.09255 cumulative IPC: 2.0917 (Simulation time: 0 hr 38 min 49 sec) 
Heartbeat CPU 0 instructions: 560000004 cycles: 168058133 heartbeat IPC: 2.08992 cumulative IPC: 2.0914 (Simulation time: 0 hr 39 min 37 sec) 
Heartbeat CPU 0 instructions: 570000004 cycles: 172892399 heartbeat IPC: 2.06857 cumulative IPC: 2.08811 (Simulation time: 0 hr 40 min 23 sec) 
Heartbeat CPU 0 instructions: 580000000 cycles: 177710220 heartbeat IPC: 2.07563 cumulative IPC: 2.08654 (Simulation time: 0 hr 41 min 8 sec) 
Heartbeat CPU 0 instructions: 590000000 cycles: 182571903 heartbeat IPC: 2.0569 cumulative IPC: 2.08321 (Simulation time: 0 hr 41 min 55 sec) 
Heartbeat CPU 0 instructions: 600000002 cycles: 187299526 heartbeat IPC: 2.11523 cumulative IPC: 2.08636 (Simulation time: 0 hr 42 min 39 sec) 
Heartbeat CPU 0 instructions: 610000002 cycles: 192098060 heartbeat IPC: 2.08397 cumulative IPC: 2.08615 (Simulation time: 0 hr 43 min 24 sec) 
Heartbeat CPU 0 instructions: 620000001 cycles: 196899494 heartbeat IPC: 2.08271 cumulative IPC: 2.08586 (Simulation time: 0 hr 44 min 8 sec) 
Heartbeat CPU 0 instructions: 630000003 cycles: 201774599 heartbeat IPC: 2.05124 cumulative IPC: 2.08316 (Simulation time: 0 hr 44 min 54 sec) 
Heartbeat CPU 0 instructions: 640000003 cycles: 206680891 heartbeat IPC: 2.0382 cumulative IPC: 2.07988 (Simulation time: 0 hr 45 min 39 sec) 
Heartbeat CPU 0 instructions: 650000000 cycles: 211513344 heartbeat IPC: 2.06934 cumulative IPC: 2.07917 (Simulation time: 0 hr 46 min 23 sec) 
Heartbeat CPU 0 instructions: 660000002 cycles: 216311610 heartbeat IPC: 2.08409 cumulative IPC: 2.07948 (Simulation time: 0 hr 47 min 8 sec) 
Heartbeat CPU 0 instructions: 670000000 cycles: 221158276 heartbeat IPC: 2.06327 cumulative IPC: 2.07852 (Simulation time: 0 hr 47 min 56 sec) 
Heartbeat CPU 0 instructions: 680000004 cycles: 225926760 heartbeat IPC: 2.0971 cumulative IPC: 2.07954 (Simulation time: 0 hr 48 min 46 sec) 
Heartbeat CPU 0 instructions: 690000003 cycles: 230638809 heartbeat IPC: 2.12222 cumulative IPC: 2.08175 (Simulation time: 0 hr 49 min 33 sec) 
Heartbeat CPU 0 instructions: 700000003 cycles: 235339260 heartbeat IPC: 2.12746 cumulative IPC: 2.08398 (Simulation time: 0 hr 50 min 25 sec) 
Heartbeat CPU 0 instructions: 710000002 cycles: 240105450 heartbeat IPC: 2.09811 cumulative IPC: 2.08465 (Simulation time: 0 hr 51 min 19 sec) 
Heartbeat CPU 0 instructions: 720000004 cycles: 244799463 heartbeat IPC: 2.13037 cumulative IPC: 2.08669 (Simulation time: 0 hr 52 min 3 sec) 
Heartbeat CPU 0 instructions: 730000001 cycles: 249463523 heartbeat IPC: 2.14405 cumulative IPC: 2.08912 (Simulation time: 0 hr 52 min 47 sec) 
Heartbeat CPU 0 instructions: 740000000 cycles: 254205857 heartbeat IPC: 2.10867 cumulative IPC: 2.08993 (Simulation time: 0 hr 53 min 32 sec) 
Heartbeat CPU 0 instructions: 750000000 cycles: 259058621 heartbeat IPC: 2.06068 cumulative IPC: 2.08874 (Simulation time: 0 hr 54 min 17 sec) 
Heartbeat CPU 0 instructions: 760000004 cycles: 263769626 heartbeat IPC: 2.12269 cumulative IPC: 2.09003 (Simulation time: 0 hr 55 min 37 sec) 
Heartbeat CPU 0 instructions: 770000001 cycles: 268332970 heartbeat IPC: 2.19137 cumulative IPC: 2.09361 (Simulation time: 0 hr 56 min 53 sec) 
Heartbeat CPU 0 instructions: 780000004 cycles: 273152893 heartbeat IPC: 2.07472 cumulative IPC: 2.09293 (Simulation time: 0 hr 57 min 58 sec) 
Heartbeat CPU 0 instructions: 790000000 cycles: 278071312 heartbeat IPC: 2.03317 cumulative IPC: 2.09081 (Simulation time: 0 hr 58 min 44 sec) 
Heartbeat CPU 0 instructions: 800000002 cycles: 282963098 heartbeat IPC: 2.04424 cumulative IPC: 2.08923 (Simulation time: 0 hr 59 min 31 sec) 
Heartbeat CPU 0 instructions: 810000004 cycles: 287812975 heartbeat IPC: 2.06191 cumulative IPC: 2.08833 (Simulation time: 1 hr 0 min 17 sec) 
Heartbeat CPU 0 instructions: 820000004 cycles: 292548511 heartbeat IPC: 2.11169 cumulative IPC: 2.08906 (Simulation time: 1 hr 1 min 3 sec) 
Heartbeat CPU 0 instructions: 830000000 cycles: 297262755 heartbeat IPC: 2.12123 cumulative IPC: 2.09002 (Simulation time: 1 hr 1 min 55 sec) 
Heartbeat CPU 0 instructions: 840000002 cycles: 302014660 heartbeat IPC: 2.10442 cumulative IPC: 2.09044 (Simulation time: 1 hr 2 min 46 sec) 
Heartbeat CPU 0 instructions: 850000000 cycles: 306689409 heartbeat IPC: 2.13915 cumulative IPC: 2.0918 (Simulation time: 1 hr 3 min 38 sec) 
Heartbeat CPU 0 instructions: 860000001 cycles: 311259480 heartbeat IPC: 2.18815 cumulative IPC: 2.09436 (Simulation time: 1 hr 4 min 22 sec) 
Heartbeat CPU 0 instructions: 870000004 cycles: 315851733 heartbeat IPC: 2.17758 cumulative IPC: 2.09653 (Simulation time: 1 hr 5 min 14 sec) 
Heartbeat CPU 0 instructions: 880000000 cycles: 320648569 heartbeat IPC: 2.08471 cumulative IPC: 2.09621 (Simulation time: 1 hr 6 min 36 sec) 
Heartbeat CPU 0 instructions: 890000001 cycles: 325174951 heartbeat IPC: 2.20927 cumulative IPC: 2.09897 (Simulation time: 1 hr 7 min 36 sec) 
Heartbeat CPU 0 instructions: 900000001 cycles: 329829803 heartbeat IPC: 2.1483 cumulative IPC: 2.10017 (Simulation time: 1 hr 8 min 27 sec) 
Heartbeat CPU 0 instructions: 910000002 cycles: 334643840 heartbeat IPC: 2.07726 cumulative IPC: 2.09961 (Simulation time: 1 hr 9 min 12 sec) 
Heartbeat CPU 0 instructions: 920000004 cycles: 339359989 heartbeat IPC: 2.12037 cumulative IPC: 2.1001 (Simulation time: 1 hr 9 min 57 sec) 
Heartbeat CPU 0 instructions: 930000002 cycles: 343949868 heartbeat IPC: 2.17871 cumulative IPC: 2.10186 (Simulation time: 1 hr 10 min 39 sec) 
Heartbeat CPU 0 instructions: 940000002 cycles: 348726643 heartbeat IPC: 2.09346 cumulative IPC: 2.10167 (Simulation time: 1 hr 11 min 40 sec) 
Heartbeat CPU 0 instructions: 950000000 cycles: 353689922 heartbeat IPC: 2.0148 cumulative IPC: 2.09966 (Simulation time: 1 hr 12 min 41 sec) 
Heartbeat CPU 0 instructions: 960000002 cycles: 358593787 heartbeat IPC: 2.03921 cumulative IPC: 2.09831 (Simulation time: 1 hr 13 min 28 sec) 
Heartbeat CPU 0 instructions: 970000001 cycles: 363462317 heartbeat IPC: 2.05401 cumulative IPC: 2.09734 (Simulation time: 1 hr 14 min 13 sec) 
Heartbeat CPU 0 instructions: 980000002 cycles: 368221145 heartbeat IPC: 2.10136 cumulative IPC: 2.09743 (Simulation time: 1 hr 14 min 59 sec) 
Heartbeat CPU 0 instructions: 990000002 cycles: 372884178 heartbeat IPC: 2.14453 cumulative IPC: 2.09837 (Simulation time: 1 hr 15 min 44 sec) 
Heartbeat CPU 0 instructions: 1000000001 cycles: 377660687 heartbeat IPC: 2.09358 cumulative IPC: 2.09827 (Simulation time: 1 hr 16 min 36 sec) 
Heartbeat CPU 0 instructions: 1010000000 cycles: 382267734 heartbeat IPC: 2.17059 cumulative IPC: 2.09964 (Simulation time: 1 hr 17 min 20 sec) 
Heartbeat CPU 0 instructions: 1020000002 cycles: 386907898 heartbeat IPC: 2.1551 cumulative IPC: 2.10068 (Simulation time: 1 hr 18 min 4 sec) 
Heartbeat CPU 0 instructions: 1030000001 cycles: 391644315 heartbeat IPC: 2.1113 cumulative IPC: 2.10088 (Simulation time: 1 hr 18 min 56 sec) 
Heartbeat CPU 0 instructions: 1040000000 cycles: 396299353 heartbeat IPC: 2.14821 cumulative IPC: 2.10174 (Simulation time: 1 hr 19 min 54 sec) 
Heartbeat CPU 0 instructions: 1050000002 cycles: 401014739 heartbeat IPC: 2.12072 cumulative IPC: 2.10208 (Simulation time: 1 hr 20 min 39 sec) 
Heartbeat CPU 0 instructions: 1060000001 cycles: 405694298 heartbeat IPC: 2.13695 cumulative IPC: 2.10269 (Simulation time: 1 hr 21 min 25 sec) 
Heartbeat CPU 0 instructions: 1070000003 cycles: 410343704 heartbeat IPC: 2.15081 cumulative IPC: 2.10352 (Simulation time: 1 hr 22 min 9 sec) 
Heartbeat CPU 0 instructions: 1080000000 cycles: 415026421 heartbeat IPC: 2.13551 cumulative IPC: 2.10406 (Simulation time: 1 hr 22 min 54 sec) 
Heartbeat CPU 0 instructions: 1090000002 cycles: 419812177 heartbeat IPC: 2.08953 cumulative IPC: 2.10382 (Simulation time: 1 hr 23 min 39 sec) 
Heartbeat CPU 0 instructions: 1100000002 cycles: 424428014 heartbeat IPC: 2.16645 cumulative IPC: 2.10483 (Simulation time: 1 hr 24 min 22 sec) 
Heartbeat CPU 0 instructions: 1110000003 cycles: 429283611 heartbeat IPC: 2.05948 cumulative IPC: 2.10407 (Simulation time: 1 hr 25 min 9 sec) 
Heartbeat CPU 0 instructions: 1120000000 cycles: 434270261 heartbeat IPC: 2.00535 cumulative IPC: 2.1024 (Simulation time: 1 hr 25 min 55 sec) 
Heartbeat CPU 0 instructions: 1130000003 cycles: 439091861 heartbeat IPC: 2.074 cumulative IPC: 2.10194 (Simulation time: 1 hr 26 min 58 sec) 
Heartbeat CPU 0 instructions: 1140000000 cycles: 444033386 heartbeat IPC: 2.02367 cumulative IPC: 2.10067 (Simulation time: 1 hr 27 min 47 sec) 
Heartbeat CPU 0 instructions: 1150000004 cycles: 448833131 heartbeat IPC: 2.08344 cumulative IPC: 2.10041 (Simulation time: 1 hr 28 min 35 sec) 
Heartbeat CPU 0 instructions: 1160000002 cycles: 453519204 heartbeat IPC: 2.13398 cumulative IPC: 2.10091 (Simulation time: 1 hr 29 min 22 sec) 
Heartbeat CPU 0 instructions: 1170000002 cycles: 458293890 heartbeat IPC: 2.09438 cumulative IPC: 2.10081 (Simulation time: 1 hr 30 min 8 sec) 
Heartbeat CPU 0 instructions: 1180000004 cycles: 463075807 heartbeat IPC: 2.09121 cumulative IPC: 2.10067 (Simulation time: 1 hr 30 min 55 sec) 
Heartbeat CPU 0 instructions: 1190000000 cycles: 467789606 heartbeat IPC: 2.12143 cumulative IPC: 2.10097 (Simulation time: 1 hr 31 min 40 sec) 
Heartbeat CPU 0 instructions: 1200000003 cycles: 472505309 heartbeat IPC: 2.12058 cumulative IPC: 2.10124 (Simulation time: 1 hr 32 min 26 sec) 
Heartbeat CPU 0 instructions: 1210000004 cycles: 477184352 heartbeat IPC: 2.13719 cumulative IPC: 2.10174 (Simulation time: 1 hr 33 min 12 sec) 
Heartbeat CPU 0 instructions: 1220000003 cycles: 481932928 heartbeat IPC: 2.10589 cumulative IPC: 2.1018 (Simulation time: 1 hr 33 min 58 sec) 
Heartbeat CPU 0 instructions: 1230000004 cycles: 486772520 heartbeat IPC: 2.06629 cumulative IPC: 2.1013 (Simulation time: 1 hr 34 min 46 sec) 
Heartbeat CPU 0 instructions: 1240000004 cycles: 491586065 heartbeat IPC: 2.07747 cumulative IPC: 2.10098 (Simulation time: 1 hr 35 min 33 sec) 
Heartbeat CPU 0 instructions: 1250000000 cycles: 496200475 heartbeat IPC: 2.16712 cumulative IPC: 2.10183 (Simulation time: 1 hr 36 min 19 sec) 
Heartbeat CPU 0 instructions: 1260000000 cycles: 501044563 heartbeat IPC: 2.06437 cumulative IPC: 2.10133 (Simulation time: 1 hr 37 min 6 sec) 
Heartbeat CPU 0 instructions: 1270000000 cycles: 506034568 heartbeat IPC: 2.00401 cumulative IPC: 2.10001 (Simulation time: 1 hr 37 min 54 sec) 
Heartbeat CPU 0 instructions: 1280000003 cycles: 510973986 heartbeat IPC: 2.02453 cumulative IPC: 2.099 (Simulation time: 1 hr 38 min 43 sec) 
Heartbeat CPU 0 instructions: 1290000001 cycles: 515845584 heartbeat IPC: 2.05271 cumulative IPC: 2.09841 (Simulation time: 1 hr 39 min 32 sec) 
Heartbeat CPU 0 instructions: 1300000004 cycles: 520692473 heartbeat IPC: 2.06318 cumulative IPC: 2.09796 (Simulation time: 1 hr 40 min 31 sec) 
Heartbeat CPU 0 instructions: 1310000003 cycles: 525608788 heartbeat IPC: 2.03404 cumulative IPC: 2.09714 (Simulation time: 1 hr 41 min 23 sec) 
Heartbeat CPU 0 instructions: 1320000000 cycles: 546829821 heartbeat IPC: 0.47123 cumulative IPC: 2.01246 (Simulation time: 1 hr 44 min 30 sec) 
Heartbeat CPU 0 instructions: 1330000000 cycles: 560796793 heartbeat IPC: 0.715975 cumulative IPC: 1.9695 (Simulation time: 1 hr 46 min 38 sec) 
Heartbeat CPU 0 instructions: 1340000001 cycles: 566176376 heartbeat IPC: 1.85888 cumulative IPC: 1.9681 (Simulation time: 1 hr 47 min 25 sec) 
Heartbeat CPU 0 instructions: 1350000002 cycles: 571662877 heartbeat IPC: 1.82266 cumulative IPC: 1.96626 (Simulation time: 1 hr 48 min 13 sec) 
Heartbeat CPU 0 instructions: 1360000000 cycles: 577021897 heartbeat IPC: 1.86601 cumulative IPC: 1.96503 (Simulation time: 1 hr 49 min 0 sec) 
Heartbeat CPU 0 instructions: 1370000002 cycles: 582498201 heartbeat IPC: 1.82605 cumulative IPC: 1.96331 (Simulation time: 1 hr 49 min 47 sec) 
Heartbeat CPU 0 instructions: 1380000003 cycles: 587976236 heartbeat IPC: 1.82547 cumulative IPC: 1.96163 (Simulation time: 1 hr 50 min 34 sec) 
Heartbeat CPU 0 instructions: 1390000000 cycles: 593316235 heartbeat IPC: 1.87266 cumulative IPC: 1.96058 (Simulation time: 1 hr 51 min 21 sec) 
Heartbeat CPU 0 instructions: 1400000004 cycles: 598819369 heartbeat IPC: 1.81715 cumulative IPC: 1.95886 (Simulation time: 1 hr 52 min 8 sec) 
Heartbeat CPU 0 instructions: 1410000001 cycles: 604144362 heartbeat IPC: 1.87794 cumulative IPC: 1.95794 (Simulation time: 1 hr 52 min 55 sec) 
Heartbeat CPU 0 instructions: 1420000002 cycles: 609689932 heartbeat IPC: 1.80324 cumulative IPC: 1.95611 (Simulation time: 1 hr 53 min 45 sec) 
Heartbeat CPU 0 instructions: 1430000002 cycles: 615127815 heartbeat IPC: 1.83895 cumulative IPC: 1.95477 (Simulation time: 1 hr 54 min 45 sec) 
Heartbeat CPU 0 instructions: 1440000002 cycles: 620512063 heartbeat IPC: 1.85727 cumulative IPC: 1.95368 (Simulation time: 1 hr 55 min 37 sec) 
Heartbeat CPU 0 instructions: 1450000000 cycles: 625991383 heartbeat IPC: 1.82504 cumulative IPC: 1.95223 (Simulation time: 1 hr 56 min 25 sec) 
Heartbeat CPU 0 instructions: 1460000003 cycles: 631361315 heartbeat IPC: 1.86222 cumulative IPC: 1.95125 (Simulation time: 1 hr 57 min 14 sec) 
Heartbeat CPU 0 instructions: 1470000001 cycles: 636789524 heartbeat IPC: 1.84223 cumulative IPC: 1.95006 (Simulation time: 1 hr 58 min 3 sec) 
Heartbeat CPU 0 instructions: 1480000003 cycles: 642129473 heartbeat IPC: 1.87268 cumulative IPC: 1.94924 (Simulation time: 1 hr 58 min 52 sec) 
Heartbeat CPU 0 instructions: 1490000000 cycles: 647580375 heartbeat IPC: 1.83456 cumulative IPC: 1.94801 (Simulation time: 1 hr 59 min 41 sec) 
Heartbeat CPU 0 instructions: 1500000004 cycles: 653027618 heartbeat IPC: 1.83579 cumulative IPC: 1.94682 (Simulation time: 2 hr 0 min 30 sec) 
Heartbeat CPU 0 instructions: 1510000000 cycles: 658418257 heartbeat IPC: 1.85507 cumulative IPC: 1.94587 (Simulation time: 2 hr 1 min 20 sec) 
Heartbeat CPU 0 instructions: 1520000001 cycles: 663881459 heartbeat IPC: 1.83043 cumulative IPC: 1.94466 (Simulation time: 2 hr 2 min 9 sec) 
Heartbeat CPU 0 instructions: 1530000001 cycles: 669240377 heartbeat IPC: 1.86605 cumulative IPC: 1.94387 (Simulation time: 2 hr 2 min 58 sec) 
Heartbeat CPU 0 instructions: 1540000002 cycles: 674716805 heartbeat IPC: 1.82601 cumulative IPC: 1.94266 (Simulation time: 2 hr 3 min 48 sec) 
Heartbeat CPU 0 instructions: 1550000004 cycles: 680046247 heartbeat IPC: 1.87637 cumulative IPC: 1.94201 (Simulation time: 2 hr 4 min 37 sec) 
Heartbeat CPU 0 instructions: 1560000001 cycles: 685481008 heartbeat IPC: 1.84001 cumulative IPC: 1.94099 (Simulation time: 2 hr 5 min 26 sec) 
Heartbeat CPU 0 instructions: 1570000001 cycles: 690888241 heartbeat IPC: 1.84937 cumulative IPC: 1.9401 (Simulation time: 2 hr 6 min 15 sec) 
Heartbeat CPU 0 instructions: 1580000002 cycles: 696167975 heartbeat IPC: 1.89403 cumulative IPC: 1.93966 (Simulation time: 2 hr 7 min 3 sec) 
Heartbeat CPU 0 instructions: 1590000003 cycles: 701555790 heartbeat IPC: 1.85604 cumulative IPC: 1.93886 (Simulation time: 2 hr 7 min 51 sec) 
Heartbeat CPU 0 instructions: 1600000001 cycles: 706850704 heartbeat IPC: 1.8886 cumulative IPC: 1.93839 (Simulation time: 2 hr 8 min 39 sec) 
Heartbeat CPU 0 instructions: 1610000002 cycles: 712254329 heartbeat IPC: 1.85061 cumulative IPC: 1.93756 (Simulation time: 2 hr 9 min 27 sec) 
Heartbeat CPU 0 instructions: 1620000000 cycles: 717579269 heartbeat IPC: 1.87796 cumulative IPC: 1.93701 (Simulation time: 2 hr 10 min 41 sec) 
Heartbeat CPU 0 instructions: 1630000002 cycles: 723048903 heartbeat IPC: 1.82828 cumulative IPC: 1.93599 (Simulation time: 2 hr 11 min 59 sec) 
Heartbeat CPU 0 instructions: 1640000000 cycles: 728444609 heartbeat IPC: 1.85333 cumulative IPC: 1.93524 (Simulation time: 2 hr 12 min 47 sec) 
Heartbeat CPU 0 instructions: 1650000004 cycles: 733849040 heartbeat IPC: 1.85033 cumulative IPC: 1.93446 (Simulation time: 2 hr 13 min 33 sec) 
Heartbeat CPU 0 instructions: 1660000001 cycles: 739270389 heartbeat IPC: 1.84456 cumulative IPC: 1.93365 (Simulation time: 2 hr 14 min 22 sec) 
Heartbeat CPU 0 instructions: 1670000000 cycles: 744584085 heartbeat IPC: 1.88193 cumulative IPC: 1.9332 (Simulation time: 2 hr 15 min 9 sec) 
Heartbeat CPU 0 instructions: 1680000002 cycles: 749968753 heartbeat IPC: 1.85713 cumulative IPC: 1.93253 (Simulation time: 2 hr 15 min 57 sec) 
Heartbeat CPU 0 instructions: 1690000001 cycles: 755289249 heartbeat IPC: 1.87952 cumulative IPC: 1.93207 (Simulation time: 2 hr 16 min 43 sec) 
Heartbeat CPU 0 instructions: 1700000000 cycles: 760671603 heartbeat IPC: 1.85792 cumulative IPC: 1.93143 (Simulation time: 2 hr 17 min 31 sec) 
Heartbeat CPU 0 instructions: 1710000004 cycles: 765968617 heartbeat IPC: 1.88786 cumulative IPC: 1.93106 (Simulation time: 2 hr 18 min 18 sec) 
Heartbeat CPU 0 instructions: 1720000000 cycles: 771422688 heartbeat IPC: 1.83349 cumulative IPC: 1.93022 (Simulation time: 2 hr 19 min 5 sec) 
Heartbeat CPU 0 instructions: 1730000002 cycles: 776875581 heartbeat IPC: 1.83389 cumulative IPC: 1.92939 (Simulation time: 2 hr 19 min 52 sec) 
Heartbeat CPU 0 instructions: 1740000001 cycles: 782244921 heartbeat IPC: 1.86243 cumulative IPC: 1.92883 (Simulation time: 2 hr 20 min 40 sec) 
Heartbeat CPU 0 instructions: 1750000004 cycles: 787724278 heartbeat IPC: 1.82503 cumulative IPC: 1.92796 (Simulation time: 2 hr 21 min 27 sec) 
Heartbeat CPU 0 instructions: 1760000004 cycles: 793053198 heartbeat IPC: 1.87655 cumulative IPC: 1.92754 (Simulation time: 2 hr 22 min 15 sec) 
Heartbeat CPU 0 instructions: 1770000003 cycles: 798532925 heartbeat IPC: 1.82491 cumulative IPC: 1.92668 (Simulation time: 2 hr 23 min 3 sec) 
Heartbeat CPU 0 instructions: 1780000002 cycles: 803941017 heartbeat IPC: 1.84908 cumulative IPC: 1.92605 (Simulation time: 2 hr 23 min 51 sec) 
Heartbeat CPU 0 instructions: 1790000002 cycles: 809291937 heartbeat IPC: 1.86884 cumulative IPC: 1.9256 (Simulation time: 2 hr 24 min 38 sec) 
Heartbeat CPU 0 instructions: 1800000004 cycles: 814702593 heartbeat IPC: 1.84821 cumulative IPC: 1.92498 (Simulation time: 2 hr 25 min 26 sec) 
Heartbeat CPU 0 instructions: 1810000001 cycles: 820043326 heartbeat IPC: 1.8724 cumulative IPC: 1.92456 (Simulation time: 2 hr 26 min 12 sec) 
Heartbeat CPU 0 instructions: 1820000004 cycles: 825525658 heartbeat IPC: 1.82404 cumulative IPC: 1.92376 (Simulation time: 2 hr 27 min 0 sec) 
Heartbeat CPU 0 instructions: 1830000004 cycles: 830878927 heartbeat IPC: 1.86802 cumulative IPC: 1.92333 (Simulation time: 2 hr 27 min 48 sec) 
Heartbeat CPU 0 instructions: 1840000003 cycles: 836390898 heartbeat IPC: 1.81423 cumulative IPC: 1.92247 (Simulation time: 2 hr 28 min 37 sec) 
Heartbeat CPU 0 instructions: 1850000000 cycles: 841811614 heartbeat IPC: 1.84477 cumulative IPC: 1.92187 (Simulation time: 2 hr 29 min 28 sec) 
Heartbeat CPU 0 instructions: 1860000001 cycles: 847215756 heartbeat IPC: 1.85043 cumulative IPC: 1.92132 (Simulation time: 2 hr 30 min 16 sec) 
Heartbeat CPU 0 instructions: 1870000003 cycles: 852678891 heartbeat IPC: 1.83045 cumulative IPC: 1.92062 (Simulation time: 2 hr 31 min 4 sec) 
Heartbeat CPU 0 instructions: 1880000000 cycles: 858039448 heartbeat IPC: 1.86548 cumulative IPC: 1.92021 (Simulation time: 2 hr 31 min 52 sec) 
Heartbeat CPU 0 instructions: 1890000001 cycles: 863489665 heartbeat IPC: 1.83479 cumulative IPC: 1.91957 (Simulation time: 2 hr 32 min 40 sec) 
Heartbeat CPU 0 instructions: 1900000001 cycles: 868818058 heartbeat IPC: 1.87674 cumulative IPC: 1.91926 (Simulation time: 2 hr 33 min 28 sec) 
Heartbeat CPU 0 instructions: 1910000001 cycles: 874316080 heartbeat IPC: 1.81884 cumulative IPC: 1.91851 (Simulation time: 2 hr 34 min 17 sec) 
Heartbeat CPU 0 instructions: 1920000004 cycles: 879740835 heartbeat IPC: 1.8434 cumulative IPC: 1.91796 (Simulation time: 2 hr 35 min 5 sec) 
Heartbeat CPU 0 instructions: 1930000002 cycles: 885136041 heartbeat IPC: 1.8535 cumulative IPC: 1.91749 (Simulation time: 2 hr 35 min 52 sec) 
Heartbeat CPU 0 instructions: 1940000003 cycles: 890589150 heartbeat IPC: 1.83382 cumulative IPC: 1.91688 (Simulation time: 2 hr 36 min 41 sec) 
Heartbeat CPU 0 instructions: 1950000003 cycles: 895969636 heartbeat IPC: 1.85857 cumulative IPC: 1.91647 (Simulation time: 2 hr 37 min 29 sec) 
Heartbeat CPU 0 instructions: 1960000001 cycles: 901424092 heartbeat IPC: 1.83336 cumulative IPC: 1.91587 (Simulation time: 2 hr 38 min 16 sec) 
Heartbeat CPU 0 instructions: 1970000001 cycles: 906788592 heartbeat IPC: 1.86411 cumulative IPC: 1.91551 (Simulation time: 2 hr 39 min 3 sec) 
Heartbeat CPU 0 instructions: 1980000003 cycles: 912254846 heartbeat IPC: 1.82941 cumulative IPC: 1.9149 (Simulation time: 2 hr 39 min 51 sec) 
Heartbeat CPU 0 instructions: 1990000001 cycles: 917659753 heartbeat IPC: 1.85017 cumulative IPC: 1.91445 (Simulation time: 2 hr 40 min 40 sec) 
*** Reached end of trace: traces/444.namd-426B.champsimtrace.xz
Heartbeat CPU 0 instructions: 2000000001 cycles: 923002578 heartbeat IPC: 1.87167 cumulative IPC: 1.91416 (Simulation time: 2 hr 41 min 27 sec) 
Finished CPU 0 instructions: 1500000000 cycles: 783633302 cumulative IPC: 1.91416 (Simulation time: 2 hr 41 min 27 sec) 

ChampSim completed all CPUs

Region of Interest Statistics

CPU 0 cumulative IPC: 1.91416 instructions: 1500000000 cycles: 783633302
cpu0_DTLB TOTAL     ACCESS:  280110626  HIT:  279947751  MISS:     162875
cpu0_DTLB LOAD      ACCESS:  217210311  HIT:  217063965  MISS:     146346
cpu0_DTLB RFO       ACCESS:   62900315  HIT:   62883786  MISS:      16529
cpu0_DTLB PREFETCH  ACCESS:          0  HIT:          0  MISS:          0
cpu0_DTLB WRITEBACK ACCESS:          0  HIT:          0  MISS:          0
cpu0_DTLB TRANSLATION ACCESS:          0  HIT:          0  MISS:          0
cpu0_DTLB PREFETCH  REQUESTED:          0  ISSUED:          0  USEFUL:          0  USELESS:          0
cpu0_DTLB AVERAGE MISS LATENCY: 16.677 cycles
cpu0_ITLB TOTAL     ACCESS:   47422856  HIT:   47422830  MISS:         26
cpu0_ITLB LOAD      ACCESS:   47422856  HIT:   47422830  MISS:         26
cpu0_ITLB RFO       ACCESS:          0  HIT:          0  MISS:          0
cpu0_ITLB PREFETCH  ACCESS:          0  HIT:          0  MISS:          0
cpu0_ITLB WRITEBACK ACCESS:          0  HIT:          0  MISS:          0
cpu0_ITLB TRANSLATION ACCESS:          0  HIT:          0  MISS:          0
cpu0_ITLB PREFETCH  REQUESTED:          0  ISSUED:          0  USEFUL:          0  USELESS:          0
cpu0_ITLB AVERAGE MISS LATENCY: 256.885 cycles
cpu0_L1I TOTAL     ACCESS:   26645294  HIT:   26644956  MISS:        338
cpu0_L1I LOAD      ACCESS:   26645294  HIT:   26644956  MISS:        338
cpu0_L1I RFO       ACCESS:          0  HIT:          0  MISS:          0
cpu0_L1I PREFETCH  ACCESS:          0  HIT:          0  MISS:          0
cpu0_L1I WRITEBACK ACCESS:          0  HIT:          0  MISS:          0
cpu0_L1I TRANSLATION ACCESS:          0  HIT:          0  MISS:          0
cpu0_L1I PREFETCH  REQUESTED:          0  ISSUED:          0  USEFUL:          0  USELESS:          0
cpu0_L1I AVERAGE MISS LATENCY: 220.024 cycles
cpu0_STLB TOTAL     ACCESS:     162901  HIT:     156881  MISS:       6020
cpu0_STLB LOAD      ACCESS:     146372  HIT:     142882  MISS:       3490
cpu0_STLB RFO       ACCESS:      16529  HIT:      13999  MISS:       2530
cpu0_STLB PREFETCH  ACCESS:          0  HIT:          0  MISS:          0
cpu0_STLB WRITEBACK ACCESS:          0  HIT:          0  MISS:          0
cpu0_STLB TRANSLATION ACCESS:          0  HIT:          0  MISS:          0
cpu0_STLB PREFETCH  REQUESTED:          0  ISSUED:          0  USEFUL:          0  USELESS:          0
cpu0_STLB AVERAGE MISS LATENCY: 208.774 cycles
cpu0_L1D TOTAL     ACCESS:  339142275  HIT:  332970032  MISS:    6172243
cpu0_L1D LOAD      ACCESS:  238581970  HIT:  232848595  MISS:    5733375
cpu0_L1D RFO       ACCESS:  100554840  HIT:  100116610  MISS:     438230
cpu0_L1D PREFETCH  ACCESS:          0  HIT:          0  MISS:          0
cpu0_L1D WRITEBACK ACCESS:          0  HIT:          0  MISS:          0
cpu0_L1D TRANSLATION ACCESS:       5465  HIT:       4827  MISS:        638
cpu0_L1D PREFETCH  REQUESTED:          0  ISSUED:          0  USEFUL:          0  USELESS:          0
cpu0_L1D AVERAGE MISS LATENCY: 71.2438 cycles
cpu0_L2C TOTAL     ACCESS:    7919792  HIT:    7480840  MISS:     438952
cpu0_L2C LOAD      ACCESS:    5733561  HIT:    5448726  MISS:     284835
cpu0_L2C RFO       ACCESS:     438046  HIT:     283977  MISS:     154069
cpu0_L2C PREFETCH  ACCESS:          0  HIT:          0  MISS:          0
cpu0_L2C WRITEBACK ACCESS:    1747547  HIT:    1747537  MISS:         10
cpu0_L2C TRANSLATION ACCESS:        638  HIT:        600  MISS:         38
cpu0_L2C PREFETCH  REQUESTED:          0  ISSUED:          0  USEFUL:          0  USELESS:          0
cpu0_L2C AVERAGE MISS LATENCY: 847.21 cycles
LLC TOTAL     ACCESS:     631147  HIT:     231029  MISS:     400118
LLC LOAD      ACCESS:     284835  HIT:      33800  MISS:     251035
LLC RFO       ACCESS:     154061  HIT:       5085  MISS:     148976
LLC PREFETCH  ACCESS:          0  HIT:          0  MISS:          0
LLC WRITEBACK ACCESS:     192213  HIT:     192127  MISS:         86
LLC TRANSLATION ACCESS:         38  HIT:         17  MISS:         21
LLC PREFETCH  REQUESTED:          0  ISSUED:          0  USEFUL:          0  USELESS:          0
LLC AVERAGE MISS LATENCY: 906.399 cycles
~~~~~~~~~~Reuse Distance Profiler output~~~~~~~~~~
0	24207888	11564784
1	38812064	20670176
2	36263888	18929456
3	35831760	16049536
4	27936192	19155216
5	26687328	22261776
6	22443472	19592784
7	17089936	15830720
8	11945904	10274496
9	12781376	11009232
10	11983600	10615968
11	8771808	7176736
12	7186112	6251024
13	5143136	3757376
14	4933360	4006080
15	6426560	5626224
16	6083296	5007216
17	9013424	7605248
18	7603664	6595456
19	6071616	3747632
20	2369072	1407920
21	1771744	1245280
22	2429792	1535008
23	2567920	1048960
24	3963280	1222224
25	2814400	1398816
26	4448832	3478000
27	5629200	4206912
28	6944832	4851600
29	3325984	2324688
30	1549776	1347248
31	1842512	1764208
32	1181680	1122992
33	1964928	1882064
34	1257568	967264
35	2711232	1541184
36	1111072	599296
37	1222800	531856
38	1763520	822000
39	2865472	1255600
40	3697376	938432
41	2575728	792224
42	990416	343712
43	944032	393584
44	1287328	625712
45	1357680	741344
46	2006480	1463312
47	3625280	3033344
48	2503744	2085360
49	2386688	2055152
50	1052944	879824
51	2181792	1839104
52	393648	315936
53	183952	140448
54	165520	111376
55	304576	242288
56	361312	291232
57	399792	325920
58	384880	316048
59	179920	123344
60	113040	51408
61	84128	38944
62	69488	34928
63	71616	32528
64	162016	41824
66	162880	23728
68	64656	22944
70	83536	21856
72	93376	18944
74	47344	20192
76	74208	23616
78	41968	21664
80	43776	28240
82	168720	154704
84	365232	328352
86	419168	360768
88	271712	228672
90	148416	121456
92	111008	93088
94	205984	188656
96	353232	338672
98	199088	192720
100	162576	158560
102	195536	191552
104	43648	41056
106	11488	8976
108	13200	10736
110	22976	20544
112	37744	35472
114	47376	45040
116	41728	39808
118	25056	22928
120	11568	9280
122	8448	6928
124	9264	7296
126	8944	7328
128	18496	15712
132	30768	27888
136	100288	97568
140	221472	218704
144	335888	333200
148	226912	224624
152	125456	123328
156	51776	49888
160	18704	17168
164	21200	19760
168	33056	31472
172	35424	33920
176	23344	22208
180	15104	13840
184	26368	25424
188	50144	48896
192	82800	81664
196	53568	52432
200	42976	41984
204	40176	39424
208	18240	17504
212	14208	13520
216	12624	11856
220	14000	13184
224	23584	22736
228	30896	30208
232	33584	32976
236	38864	38384
240	54128	53472
244	26208	25664
248	19856	19328
252	20624	19856
256	64368	63152
264	37856	36640
272	29648	28576
280	66320	65328
288	94000	92928
296	39264	38368
304	39536	38528
312	54000	52928
320	42512	41632
328	44672	43664
336	83088	82368
344	61344	60624
352	39040	38272
360	40576	39904
368	47728	47008
376	62368	61808
384	75184	74688
392	46272	45664
400	56832	56224
408	49392	48768
416	39088	38352
424	54656	54112
432	84832	84064
440	44640	44096
448	48576	48048
456	50720	50208
464	56176	55632
472	50624	49856
480	79472	78848
488	56240	55872
496	51216	50768
504	46160	45568
512	115568	114624
528	127520	126544
544	111296	110128
560	110768	109504
576	138304	137312
592	108640	107856
608	118240	117184
624	146352	145280
640	111376	110176
656	133824	132704
672	240624	239600
688	165360	164160
704	251856	250848
720	301872	300960
736	262304	261328
752	251856	251040
768	258496	257440
784	251056	250080
800	254336	253088
816	417904	416784
832	472288	471264
848	559632	558288
864	349808	348640
880	273648	272560
896	292224	290656
912	275296	274176
928	239328	237824
944	275232	273728
960	228992	227728
976	251008	249680
992	234864	233328
1008	195408	194080
1024	309712	306512
1056	304240	301360
1088	293904	291056
1120	281296	278288
1152	326064	323264
1184	404768	401968
1216	663856	661120
1248	854800	851584
1280	1280912	1278160
1312	1115168	1112448
1344	725056	721952
1376	505376	502208
1408	420528	417664
1440	340928	337536
1472	305072	301488
1504	391440	388000
1536	401296	398032
1568	315824	312384
1600	301568	298368
1632	240352	236960
1664	215776	212640
1696	219664	216048
1728	214032	210624
1760	192192	188992
1792	192000	188752
1824	194928	191616
1856	181984	178928
1888	183648	180816
1920	193344	190096
1952	182976	179872
1984	177040	173584
2016	177088	174160
2048	341456	334880
2112	338016	331152
2176	338000	331904
2240	317072	310880
2304	325344	318400
2368	318672	311424
2432	311072	304608
2496	304800	297856
2560	305264	298624
2624	301024	294368
2688	295632	289424
2752	292640	286032
2816	282112	274944
2880	288832	282096
2944	280400	273888
3008	282288	276176
3072	271504	264976
3136	271072	264784
3200	264656	258768
3264	264496	257664
3328	262208	256112
3392	265456	259552
3456	256400	250128
3520	257008	250880
3584	254576	248400
3648	244464	238192
3712	250064	243600
3776	243984	238368
3840	240160	234256
3904	236272	230496
3968	234160	227696
4032	229568	223392
4096	459488	447696
4224	450896	438832
4352	441136	430128
4480	428560	416992
4608	420592	409888
4736	410352	399488
4864	399840	388368
4992	395376	384944
5120	390992	380752
5248	381296	370704
5376	373040	363088
5504	373584	364016
5632	359808	349488
5760	357216	347968
5888	352912	343760
6016	345408	335808
6144	344624	335248
6272	338304	328624
6400	329760	320944
6528	325696	316848
6656	319600	311968
6784	313760	305920
6912	309408	301728
7040	301664	293840
7168	302112	294672
7296	298000	290368
7424	290480	283376
7552	283168	275760
7680	277456	270144
7808	269952	263024
7936	275104	268032
8064	259680	253376
8192	497824	484976
8448	486080	473856
8704	462128	449856
8960	447376	436576
9216	428592	418080
9472	417104	407296
9728	407632	398640
9984	387184	377760
10240	366848	358528
10496	352416	345024
10752	335920	327952
11008	316800	308672
11264	304464	297376
11520	299712	293600
11776	282080	275952
12032	267808	261840
12288	251136	245376
12544	247952	242528
12800	233376	228544
13056	225808	221056
13312	203936	199712
13568	193168	188864
13824	183888	179760
14080	177120	173744
14336	167744	163984
14592	159728	155872
14848	149968	147008
15104	153296	149424
15360	144368	140624
15616	137776	134672
15872	125216	121856
16128	116816	113856
16384	220576	216128
16896	197392	193168
17408	182176	178192
17920	165264	161760
18432	151552	148000
18944	142848	139568
19456	136352	133568
19968	128080	125056
20480	119520	116592
20992	118592	116336
21504	107648	104800
22016	103456	100896
22528	108432	105904
23040	99744	97328
23552	93616	91440
24064	96464	94320
24576	89488	87296
25088	85056	82752
25600	81856	79584
26112	76560	74576
26624	74560	72288
27136	75536	73504
27648	72688	70720
28160	71232	69024
28672	65472	63632
29184	62832	60992
29696	62528	60832
30208	58160	56320
30720	54288	52752
31232	55728	53984
31744	54112	52160
32256	53696	52176
32768	98880	95808
33792	92976	89744
34816	83248	80784
35840	78560	75568
36864	73568	71216
37888	70208	68016
38912	65088	62960
39936	59264	57152
40960	57680	55808
41984	49792	47824
43008	50032	48400
44032	46320	44624
45056	43424	41936
46080	42160	40848
47104	39152	37904
48128	36448	35280
49152	33856	32544
50176	32688	31712
51200	32000	30960
52224	27216	26176
53248	26800	26000
54272	26064	25376
55296	24016	23024
56320	24032	23424
57344	22464	21856
58368	21952	21264
59392	20016	19312
60416	20592	19920
61440	20640	20016
62464	20384	19664
63488	19824	19184
64512	17968	17424
65536	33984	32896
67584	32560	31680
69632	29680	28704
71680	28144	27248
73728	29392	28384
75776	26704	25312
77824	25104	23872
79872	23136	22160
81920	22192	21520
83968	21776	21008
86016	19632	18992
88064	20016	19200
90112	19328	17440
92160	20800	17600
94208	17568	16192
96256	16496	15184
98304	15504	14720
100352	14656	14176
102400	14160	13792
104448	13632	13104
106496	13808	12912
108544	13296	12576
110592	11936	11408
112640	11264	10832
114688	11728	11408
116736	10320	10000
118784	10448	10096
120832	9680	9344
122880	9584	9232
124928	9088	8880
126976	9376	9056
129024	9200	8992
131072	16048	15600
135168	15376	14816
139264	14768	14400
143360	13328	12896
147456	12192	11808
151552	11728	11360
155648	11520	11200
159744	11424	11088
163840	10688	10288
167936	10480	10160
172032	9792	9472
176128	9680	9392
180224	8272	7920
184320	8096	7776
188416	7184	7008
192512	7776	7520
196608	7264	6992
200704	7072	6880
204800	6960	6832
208896	6192	6080
212992	6400	6240
217088	7216	6992
221184	5936	5840
225280	5616	5504
229376	5136	4992
233472	5200	4976
237568	5088	4912
241664	4560	4384
245760	4976	4720
249856	4496	4432
253952	4832	4576
258048	4432	4336
262144	9136	8656
270336	7840	7600
278528	8080	7344
286720	7104	6976
294912	7888	7632
303104	6272	6000
311296	6464	6272
319488	6320	6176
327680	6592	6352
335872	7008	6784
344064	5520	5344
352256	5376	5296
360448	4816	4688
368640	5280	5088
376832	5328	5136
385024	4304	4128
393216	4944	4816
401408	4464	4384
409600	4528	4432
417792	4512	4400
425984	3344	3184
434176	3408	3312
442368	4096	3984
450560	3264	3216
458752	3248	3200
466944	3344	3312
475136	3296	3184
483328	3632	3584
491520	3088	2976
499712	3200	3072
507904	3216	3120
516096	3040	2960
524288	6336	6208
540672	5584	5376
557056	6112	5968
573440	5088	4992
589824	6400	6288
606208	6128	6032
622592	6352	6240
638976	5200	5104
655360	4480	4288
671744	5136	4992
688128	4176	4080
704512	4784	4768
720896	4752	4656
737280	4208	4160
753664	3808	3664
770048	3488	3440
786432	4176	4112
802816	4464	4400
819200	4224	4208
835584	3984	3936
851968	3840	3760
868352	4176	4128
884736	3168	3136
901120	2544	2480
917504	2720	2672
933888	2432	2384
950272	2400	2368
966656	2064	1984
983040	2080	2032
999424	2048	1952
1015808	1776	1696
1032192	1664	1584
1048576	3776	3712
1081344	3792	3712
1114112	3296	3216
1146880	3104	3040
1179648	3904	3808
1212416	4192	4128
1245184	4192	4128
1277952	3680	3600
1310720	5680	5648
1343488	5728	5696
1376256	5488	5424
1409024	5952	5904
1441792	4656	4576
1474560	5008	4896
1507328	4000	3952
1540096	4032	3952
1572864	3632	3584
1605632	3456	3424
1638400	3664	3648
1671168	3632	3616
1703936	2144	2112
1736704	2112	2064
1769472	2048	2016
1802240	1808	1760
1835008	1824	1792
1867776	5264	1872
1900544	15792	2160
1933312	16784	2112
1966080	17552	2560
1998848	15312	2080
2031616	11808	1840
2064384	2000	2000
2097152	5024	4944
2162688	4928	4816
2228224	3872	3728
2293760	3760	3632
2359296	3184	3088
2424832	3136	3040
2490368	2976	2944
2555904	2976	2928
2621440	2640	2608
2686976	2480	2448
2752512	3312	3248
2818048	3008	2960
2883584	4048	4032
2949120	2784	2704
3014656	2448	2368
3080192	2480	2432
3145728	2416	2352
3211264	1856	1824
3276800	2144	2048
3342336	1936	1904
3407872	1616	1584
3473408	1232	1152
3538944	1872	1808
3604480	1232	1232
3670016	1440	1408
3735552	944	928
3801088	1168	1168
3866624	1168	1168
3932160	1104	1088
3997696	944	944
4063232	848	816
4128768	656	656
4194304	2288	2256
4325376	2160	2144
4456448	1328	1328
4587520	1408	1408
4718592	1136	1104
4849664	1232	1232
4980736	1776	1776
5111808	864	832
5242880	1008	992
5373952	1200	1200
5505024	1392	1376
5636096	1216	1200
5767168	656	656
5898240	2432	2416
6029312	928	928
6160384	1776	1776
6291456	2224	2224
6422528	2368	2352
6553600	1568	1568
6684672	1008	1008
6815744	688	688
6946816	1024	1024
7077888	384	352
7208960	256	256
7340032	1360	1360
7471104	1536	1520
7602176	1984	1984
7733248	1664	1632
7864320	2096	2096
7995392	896	896
8126464	1392	1392
8257536	1632	1616
8388608	1968	1952
8650752	2496	2480
8912896	1008	1008
9175040	624	624
9437184	768	752
9699328	912	896
9961472	1648	1648
10223616	528	528
10485760	1072	1072
10747904	1120	1120
11010048	1056	1040
11272192	544	544
11534336	832	832
11796480	1072	1072
12058624	432	432
12320768	352	352
12582912	400	400
12845056	720	720
13107200	976	976
13369344	304	304
13631488	1152	1152
13893632	512	512
14155776	560	560
14417920	272	272
14680064	592	592
14942208	144	128
15204352	240	240
15466496	288	288
15728640	320	320
15990784	304	304
16252928	160	160
16515072	144	144
16777216	304	304
17301504	704	704
17825792	80	80
18350080	96	96
18874368	816	784
19398656	1280	1280
19922944	992	992
20447232	1488	1488
20971520	960	960
21495808	1392	1392
22020096	512	512
22544384	1888	1888
23068672	944	944
23592960	1872	1872
24117248	1376	1376
24641536	1296	1296
25165824	1296	1296
25690112	1312	1312
26214400	816	816
26738688	1776	1776
27262976	960	960
27787264	1344	1344
28311552	1456	1456
28835840	592	592
29360128	304	304
29884416	1264	1264
30408704	304	304
30932992	576	576
31457280	688	672
31981568	384	368
32505856	144	144
33030144	128	128
33554432	1328	1328
34603008	464	464
35651584	512	512
36700160	544	544
37748736	560	560
38797312	1744	1744
39845888	1008	1008
40894464	1952	1952
41943040	1056	1056
42991616	1056	1056
44040192	768	752
45088768	1216	1216
46137344	752	752
47185920	2240	2240
48234496	400	400
49283072	1008	1008
50331648	1200	1200
51380224	1152	1152
52428800	480	480
53477376	704	704
54525952	240	240
55574528	576	576
56623104	912	912
57671680	224	224
58720256	480	480
59768832	224	224
60817408	368	368
61865984	64	64
62914560	368	368
63963136	528	528
65011712	400	400
66060288	192	192
67108864	400	400
69206016	912	912
71303168	256	256
73400320	640	640
75497472	832	832
77594624	960	960
79691776	480	480
81788928	48	48
83886080	848	848
85983232	688	688
88080384	912	896
90177536	416	416
92274688	768	752
94371840	352	352
96468992	528	528
98566144	736	736
100663296	624	624
102760448	416	416
104857600	848	848
106954752	352	352
109051904	368	368
111149056	592	592
113246208	560	560
115343360	720	720
117440512	512	512
119537664	800	800
121634816	832	832
123731968	416	416
125829120	560	560
127926272	816	816
130023424	656	656
132120576	400	400
134217728	1376	1376
138412032	2032	2032
142606336	1376	1376
146800640	1648	1648
150994944	1024	1024
155189248	912	912
159383552	1008	1008
163577856	1440	1440
167772160	1184	1184
171966464	1328	1328
176160768	560	560
180355072	1200	1200
184549376	912	912
188743680	1136	1136
192937984	704	704
197132288	1776	1776
201326592	1952	1952
205520896	480	480
209715200	464	464
213909504	752	752
218103808	624	624
222298112	688	688
226492416	528	528
230686720	672	672
234881024	192	192
239075328	784	784
243269632	256	256
247463936	592	592
251658240	96	96
255852544	560	560
260046848	160	160
264241152	224	224
268435456	672	672
276824064	784	784
285212672	208	208
293601280	720	720
301989888	240	240
310378496	608	608
318767104	16	16
327155712	16	16
335544320	0	0
343932928	16	16
352321536	0	0
360710144	0	0
369098752	0	0
377487360	0	0
385875968	0	0
394264576	16	16
402653184	0	0
411041792	0	0
419430400	0	0
427819008	0	0
436207616	0	0
444596224	0	0
452984832	0	0
461373440	16	16
469762048	0	0
478150656	0	0
486539264	0	0
494927872	0	0
503316480	0	0
511705088	0	0
520093696	0	0
528482304	0	0
536870912	0	0
553648128	0	0
570425344	0	0
587202560	0	0
603979776	0	0
620756992	0	0
637534208	0	0
654311424	0	0
671088640	0	0
687865856	0	0
704643072	0	0
721420288	0	0
738197504	0	0
754974720	0	0
771751936	0	0
788529152	0	0
805306368	0	0
822083584	0	0
838860800	0	0
855638016	0	0
872415232	0	0
889192448	0	0
905969664	0	0
922746880	0	0
939524096	0	0
956301312	0	0
973078528	0	0
989855744	0	0
1006632960	0	0
1023410176	0	0
1040187392	0	0
1056964608	0	0
1073741824	0	0
1107296256	0	0
1140850688	0	0
1174405120	0	0
1207959552	0	0
1241513984	0	0
1275068416	0	0
1308622848	0	0
1342177280	0	0
1375731712	0	0
1409286144	0	0
1442840576	0	0
1476395008	0	0
1509949440	0	0
1543503872	0	0
1577058304	0	0
1610612736	0	0
1644167168	0	0
1677721600	0	0
1711276032	0	0
1744830464	0	0
1778384896	0	0
1811939328	0	0
1845493760	0	0
1879048192	0	0
1912602624	0	0
1946157056	0	0
1979711488	0	0
2013265920	0	0
2046820352	0	0
2080374784	0	0
2113929216	0	0
2147483648	0	0
2214592512	0	0
2281701376	0	0
2348810240	0	0
2415919104	0	0
2483027968	0	0
2550136832	0	0
2617245696	0	0
2684354560	0	0
2751463424	0	0
2818572288	0	0
2885681152	0	0
2952790016	0	0
3019898880	0	0
3087007744	0	0
3154116608	0	0
3221225472	0	0
3288334336	0	0
3355443200	0	0
3422552064	0	0
3489660928	0	0
3556769792	0	0
3623878656	0	0
3690987520	0	0
3758096384	0	0
3825205248	0	0
3892314112	0	0
3959422976	0	0
4026531840	0	0
4093640704	0	0
4160749568	0	0
4227858432	0	0
~~~~~~~~~~Reuse Distance Profiler output end~~~~~~~~~~

DRAM Statistics
 CHANNEL 0
 RQ ROW_BUFFER_HIT:      15818  ROW_BUFFER_MISS:     384185
 DBUS AVG_CONGESTED_CYCLE:    3.97866
 WQ ROW_BUFFER_HIT:      15143  ROW_BUFFER_MISS:     155408  FULL:          0


CPU 0 Branch Prediction Accuracy: 94.7208% MPKI: 2.26748 Average ROB Occupancy at Mispredict: 90.898
Branch type MPKI
BRANCH_DIRECT_JUMP: 3.73333e-05
BRANCH_INDIRECT: 8.66667e-06
BRANCH_CONDITIONAL: 2.26736
BRANCH_DIRECT_CALL: 3.2e-05
BRANCH_INDIRECT_CALL: 1e-05
BRANCH_RETURN: 3.33333e-05

