
*** ChampSim Multicore Out-of-Order Simulator ***

Warmup Instructions: 500000000
Simulation Instructions: 1500000000
Number of CPUs: 1
Off-chip DRAM Size: 4 GiB Channels: 1 Width: 64-bit Data Rate: 3200 MT/s

VirtualMemory physical capacity: 8588881920 num_ppages: 2096895
VirtualMemory page size: 4096 log2_page_size: 12

CPU 0 runs traces/444.namd-321B.champsimtrace.xz
CPU 0 Bimodal branch predictor
Basic BTB sets: 1024 ways: 8 indirect buffer size: 4096 RAS size: 64
Initializing LRU.
Initializing LRU.
Initializing LRU.
Initializing LRU.
Initializing rdLRU.
Initializing LRU.
Initializing LRU.
Heartbeat CPU 0 instructions: 10000001 cycles: 2761300 heartbeat IPC: 3.62148 cumulative IPC: 3.62148 (Simulation time: 0 hr 0 min 41 sec) 
Heartbeat CPU 0 instructions: 20000004 cycles: 5619823 heartbeat IPC: 3.49831 cumulative IPC: 3.55883 (Simulation time: 0 hr 1 min 21 sec) 
Heartbeat CPU 0 instructions: 30000002 cycles: 8408977 heartbeat IPC: 3.58532 cumulative IPC: 3.56762 (Simulation time: 0 hr 1 min 59 sec) 
Heartbeat CPU 0 instructions: 40000004 cycles: 11260566 heartbeat IPC: 3.50682 cumulative IPC: 3.55222 (Simulation time: 0 hr 2 min 39 sec) 
Heartbeat CPU 0 instructions: 50000000 cycles: 13985899 heartbeat IPC: 3.66927 cumulative IPC: 3.57503 (Simulation time: 0 hr 3 min 17 sec) 
Heartbeat CPU 0 instructions: 60000002 cycles: 16755802 heartbeat IPC: 3.61024 cumulative IPC: 3.58085 (Simulation time: 0 hr 3 min 56 sec) 
Heartbeat CPU 0 instructions: 70000000 cycles: 19608695 heartbeat IPC: 3.50521 cumulative IPC: 3.56984 (Simulation time: 0 hr 4 min 36 sec) 
Heartbeat CPU 0 instructions: 80000003 cycles: 22430897 heartbeat IPC: 3.54333 cumulative IPC: 3.56651 (Simulation time: 0 hr 5 min 15 sec) 
Heartbeat CPU 0 instructions: 90000003 cycles: 25233614 heartbeat IPC: 3.56797 cumulative IPC: 3.56667 (Simulation time: 0 hr 5 min 54 sec) 
Heartbeat CPU 0 instructions: 100000002 cycles: 28096288 heartbeat IPC: 3.49324 cumulative IPC: 3.55919 (Simulation time: 0 hr 6 min 35 sec) 
Heartbeat CPU 0 instructions: 110000000 cycles: 30875003 heartbeat IPC: 3.59879 cumulative IPC: 3.56275 (Simulation time: 0 hr 7 min 14 sec) 
Heartbeat CPU 0 instructions: 120000002 cycles: 33707751 heartbeat IPC: 3.53014 cumulative IPC: 3.56001 (Simulation time: 0 hr 7 min 53 sec) 
Heartbeat CPU 0 instructions: 130000002 cycles: 36509784 heartbeat IPC: 3.56884 cumulative IPC: 3.56069 (Simulation time: 0 hr 8 min 33 sec) 
Heartbeat CPU 0 instructions: 140000001 cycles: 39286112 heartbeat IPC: 3.60188 cumulative IPC: 3.5636 (Simulation time: 0 hr 9 min 11 sec) 
Heartbeat CPU 0 instructions: 150000001 cycles: 42010898 heartbeat IPC: 3.67001 cumulative IPC: 3.5705 (Simulation time: 0 hr 9 min 49 sec) 
Heartbeat CPU 0 instructions: 160000001 cycles: 44880044 heartbeat IPC: 3.48536 cumulative IPC: 3.56506 (Simulation time: 0 hr 10 min 44 sec) 
Heartbeat CPU 0 instructions: 170000001 cycles: 47622747 heartbeat IPC: 3.64604 cumulative IPC: 3.56972 (Simulation time: 0 hr 11 min 51 sec) 
Heartbeat CPU 0 instructions: 180000002 cycles: 50438168 heartbeat IPC: 3.55187 cumulative IPC: 3.56873 (Simulation time: 0 hr 12 min 50 sec) 
Heartbeat CPU 0 instructions: 190000003 cycles: 53295710 heartbeat IPC: 3.49951 cumulative IPC: 3.56501 (Simulation time: 0 hr 13 min 53 sec) 
Heartbeat CPU 0 instructions: 200000001 cycles: 56039439 heartbeat IPC: 3.64467 cumulative IPC: 3.56892 (Simulation time: 0 hr 15 min 0 sec) 
Heartbeat CPU 0 instructions: 210000000 cycles: 58870858 heartbeat IPC: 3.5318 cumulative IPC: 3.56713 (Simulation time: 0 hr 15 min 59 sec) 
Heartbeat CPU 0 instructions: 220000004 cycles: 61666843 heartbeat IPC: 3.57656 cumulative IPC: 3.56756 (Simulation time: 0 hr 16 min 35 sec) 
Heartbeat CPU 0 instructions: 230000004 cycles: 64490994 heartbeat IPC: 3.54089 cumulative IPC: 3.56639 (Simulation time: 0 hr 17 min 12 sec) 
Heartbeat CPU 0 instructions: 240000001 cycles: 67334071 heartbeat IPC: 3.51731 cumulative IPC: 3.56432 (Simulation time: 0 hr 18 min 14 sec) 
Heartbeat CPU 0 instructions: 250000002 cycles: 70118983 heartbeat IPC: 3.59078 cumulative IPC: 3.56537 (Simulation time: 0 hr 19 min 23 sec) 
Heartbeat CPU 0 instructions: 260000004 cycles: 72973779 heartbeat IPC: 3.50288 cumulative IPC: 3.56292 (Simulation time: 0 hr 20 min 18 sec) 
Heartbeat CPU 0 instructions: 270000002 cycles: 75791010 heartbeat IPC: 3.54958 cumulative IPC: 3.56243 (Simulation time: 0 hr 21 min 7 sec) 
Heartbeat CPU 0 instructions: 280000002 cycles: 78556587 heartbeat IPC: 3.61588 cumulative IPC: 3.56431 (Simulation time: 0 hr 21 min 44 sec) 
Heartbeat CPU 0 instructions: 290000003 cycles: 81404382 heartbeat IPC: 3.51149 cumulative IPC: 3.56246 (Simulation time: 0 hr 22 min 22 sec) 
Heartbeat CPU 0 instructions: 300000003 cycles: 84205049 heartbeat IPC: 3.57058 cumulative IPC: 3.56273 (Simulation time: 0 hr 22 min 59 sec) 
Heartbeat CPU 0 instructions: 310000001 cycles: 87094346 heartbeat IPC: 3.46105 cumulative IPC: 3.55936 (Simulation time: 0 hr 23 min 37 sec) 
Heartbeat CPU 0 instructions: 320000002 cycles: 89844227 heartbeat IPC: 3.63652 cumulative IPC: 3.56172 (Simulation time: 0 hr 24 min 13 sec) 
Heartbeat CPU 0 instructions: 330000000 cycles: 92707653 heartbeat IPC: 3.49232 cumulative IPC: 3.55958 (Simulation time: 0 hr 24 min 53 sec) 
Heartbeat CPU 0 instructions: 340000002 cycles: 95457371 heartbeat IPC: 3.63674 cumulative IPC: 3.5618 (Simulation time: 0 hr 25 min 52 sec) 
Heartbeat CPU 0 instructions: 350000003 cycles: 98178705 heartbeat IPC: 3.67467 cumulative IPC: 3.56493 (Simulation time: 0 hr 26 min 42 sec) 
Heartbeat CPU 0 instructions: 360000001 cycles: 100921024 heartbeat IPC: 3.64655 cumulative IPC: 3.56715 (Simulation time: 0 hr 27 min 21 sec) 
Heartbeat CPU 0 instructions: 370000001 cycles: 103660713 heartbeat IPC: 3.65005 cumulative IPC: 3.56934 (Simulation time: 0 hr 28 min 5 sec) 
Heartbeat CPU 0 instructions: 380000002 cycles: 106425159 heartbeat IPC: 3.61736 cumulative IPC: 3.57058 (Simulation time: 0 hr 29 min 7 sec) 
Heartbeat CPU 0 instructions: 390000002 cycles: 109194670 heartbeat IPC: 3.61075 cumulative IPC: 3.5716 (Simulation time: 0 hr 29 min 47 sec) 
Heartbeat CPU 0 instructions: 400000000 cycles: 111944041 heartbeat IPC: 3.63719 cumulative IPC: 3.57321 (Simulation time: 0 hr 30 min 27 sec) 
Heartbeat CPU 0 instructions: 410000000 cycles: 114717608 heartbeat IPC: 3.60547 cumulative IPC: 3.57399 (Simulation time: 0 hr 31 min 6 sec) 
Heartbeat CPU 0 instructions: 420000002 cycles: 117462052 heartbeat IPC: 3.64373 cumulative IPC: 3.57562 (Simulation time: 0 hr 31 min 45 sec) 
Heartbeat CPU 0 instructions: 430000002 cycles: 120197265 heartbeat IPC: 3.65602 cumulative IPC: 3.57745 (Simulation time: 0 hr 32 min 24 sec) 
Heartbeat CPU 0 instructions: 440000001 cycles: 122941137 heartbeat IPC: 3.64448 cumulative IPC: 3.57895 (Simulation time: 0 hr 33 min 2 sec) 
Heartbeat CPU 0 instructions: 450000000 cycles: 125721887 heartbeat IPC: 3.59615 cumulative IPC: 3.57933 (Simulation time: 0 hr 33 min 40 sec) 
Heartbeat CPU 0 instructions: 460000002 cycles: 128478191 heartbeat IPC: 3.62805 cumulative IPC: 3.58037 (Simulation time: 0 hr 34 min 18 sec) 
Heartbeat CPU 0 instructions: 470000002 cycles: 131214959 heartbeat IPC: 3.65395 cumulative IPC: 3.58191 (Simulation time: 0 hr 34 min 56 sec) 
Heartbeat CPU 0 instructions: 480000000 cycles: 133979150 heartbeat IPC: 3.61769 cumulative IPC: 3.58265 (Simulation time: 0 hr 35 min 33 sec) 
Heartbeat CPU 0 instructions: 490000001 cycles: 136718288 heartbeat IPC: 3.65078 cumulative IPC: 3.58401 (Simulation time: 0 hr 36 min 10 sec) 
Heartbeat CPU 0 instructions: 500000004 cycles: 139469334 heartbeat IPC: 3.63498 cumulative IPC: 3.58502 (Simulation time: 0 hr 36 min 47 sec) 

Warmup complete CPU 0 instructions: 500000004 cycles: 139469334 (Simulation time: 0 hr 36 min 47 sec) 

Heartbeat CPU 0 instructions: 510000000 cycles: 144260022 heartbeat IPC: 2.08738 cumulative IPC: 2.08738 (Simulation time: 0 hr 37 min 28 sec) 
Heartbeat CPU 0 instructions: 520000000 cycles: 149009859 heartbeat IPC: 2.10534 cumulative IPC: 2.09632 (Simulation time: 0 hr 38 min 10 sec) 
Heartbeat CPU 0 instructions: 530000004 cycles: 153843824 heartbeat IPC: 2.0687 cumulative IPC: 2.08703 (Simulation time: 0 hr 39 min 14 sec) 
Heartbeat CPU 0 instructions: 540000004 cycles: 158674030 heartbeat IPC: 2.07031 cumulative IPC: 2.08282 (Simulation time: 0 hr 40 min 2 sec) 
Heartbeat CPU 0 instructions: 550000004 cycles: 163617943 heartbeat IPC: 2.02269 cumulative IPC: 2.07051 (Simulation time: 0 hr 41 min 0 sec) 
Heartbeat CPU 0 instructions: 560000000 cycles: 168553616 heartbeat IPC: 2.02607 cumulative IPC: 2.06297 (Simulation time: 0 hr 42 min 14 sec) 
Heartbeat CPU 0 instructions: 570000000 cycles: 173403769 heartbeat IPC: 2.06179 cumulative IPC: 2.0628 (Simulation time: 0 hr 43 min 28 sec) 
Heartbeat CPU 0 instructions: 580000000 cycles: 178247905 heartbeat IPC: 2.06435 cumulative IPC: 2.06299 (Simulation time: 0 hr 44 min 43 sec) 
Heartbeat CPU 0 instructions: 590000002 cycles: 183017269 heartbeat IPC: 2.09672 cumulative IPC: 2.06669 (Simulation time: 0 hr 45 min 33 sec) 
Heartbeat CPU 0 instructions: 600000001 cycles: 187747416 heartbeat IPC: 2.1141 cumulative IPC: 2.07133 (Simulation time: 0 hr 46 min 14 sec) 
Heartbeat CPU 0 instructions: 610000002 cycles: 192541742 heartbeat IPC: 2.0858 cumulative IPC: 2.07264 (Simulation time: 0 hr 46 min 56 sec) 
Heartbeat CPU 0 instructions: 620000004 cycles: 197285473 heartbeat IPC: 2.10805 cumulative IPC: 2.07555 (Simulation time: 0 hr 47 min 37 sec) 
Heartbeat CPU 0 instructions: 630000004 cycles: 202023429 heartbeat IPC: 2.11061 cumulative IPC: 2.0782 (Simulation time: 0 hr 48 min 17 sec) 
Heartbeat CPU 0 instructions: 640000000 cycles: 206690390 heartbeat IPC: 2.14272 cumulative IPC: 2.08268 (Simulation time: 0 hr 48 min 58 sec) 
Heartbeat CPU 0 instructions: 650000002 cycles: 211408949 heartbeat IPC: 2.11929 cumulative IPC: 2.08508 (Simulation time: 0 hr 49 min 38 sec) 
Heartbeat CPU 0 instructions: 660000003 cycles: 216248369 heartbeat IPC: 2.06636 cumulative IPC: 2.0839 (Simulation time: 0 hr 50 min 19 sec) 
Heartbeat CPU 0 instructions: 670000001 cycles: 221037569 heartbeat IPC: 2.08803 cumulative IPC: 2.08414 (Simulation time: 0 hr 51 min 0 sec) 
Heartbeat CPU 0 instructions: 680000000 cycles: 225701678 heartbeat IPC: 2.14403 cumulative IPC: 2.08738 (Simulation time: 0 hr 51 min 40 sec) 
Heartbeat CPU 0 instructions: 690000003 cycles: 230608540 heartbeat IPC: 2.03796 cumulative IPC: 2.08472 (Simulation time: 0 hr 52 min 21 sec) 
Heartbeat CPU 0 instructions: 700000003 cycles: 235562846 heartbeat IPC: 2.01845 cumulative IPC: 2.08131 (Simulation time: 0 hr 53 min 2 sec) 
Heartbeat CPU 0 instructions: 710000002 cycles: 240435805 heartbeat IPC: 2.05214 cumulative IPC: 2.0799 (Simulation time: 0 hr 53 min 43 sec) 
Heartbeat CPU 0 instructions: 720000000 cycles: 245206189 heartbeat IPC: 2.09627 cumulative IPC: 2.08064 (Simulation time: 0 hr 54 min 24 sec) 
Heartbeat CPU 0 instructions: 730000000 cycles: 249934401 heartbeat IPC: 2.11496 cumulative IPC: 2.08211 (Simulation time: 0 hr 55 min 11 sec) 
Heartbeat CPU 0 instructions: 740000000 cycles: 254573958 heartbeat IPC: 2.15538 cumulative IPC: 2.08506 (Simulation time: 0 hr 55 min 52 sec) 
Heartbeat CPU 0 instructions: 750000000 cycles: 259208973 heartbeat IPC: 2.15749 cumulative IPC: 2.08786 (Simulation time: 0 hr 56 min 34 sec) 
Heartbeat CPU 0 instructions: 760000000 cycles: 263960831 heartbeat IPC: 2.10444 cumulative IPC: 2.0885 (Simulation time: 0 hr 57 min 16 sec) 
Heartbeat CPU 0 instructions: 770000003 cycles: 268605997 heartbeat IPC: 2.15278 cumulative IPC: 2.09081 (Simulation time: 0 hr 57 min 57 sec) 
Heartbeat CPU 0 instructions: 780000001 cycles: 273209840 heartbeat IPC: 2.1721 cumulative IPC: 2.09361 (Simulation time: 0 hr 58 min 55 sec) 
Heartbeat CPU 0 instructions: 790000003 cycles: 277835144 heartbeat IPC: 2.16202 cumulative IPC: 2.09589 (Simulation time: 0 hr 59 min 47 sec) 
Heartbeat CPU 0 instructions: 800000004 cycles: 282645739 heartbeat IPC: 2.07875 cumulative IPC: 2.09532 (Simulation time: 1 hr 0 min 29 sec) 
Heartbeat CPU 0 instructions: 810000000 cycles: 287394546 heartbeat IPC: 2.10579 cumulative IPC: 2.09565 (Simulation time: 1 hr 1 min 11 sec) 
Heartbeat CPU 0 instructions: 820000002 cycles: 291996392 heartbeat IPC: 2.17304 cumulative IPC: 2.09799 (Simulation time: 1 hr 1 min 51 sec) 
Heartbeat CPU 0 instructions: 830000004 cycles: 296859979 heartbeat IPC: 2.0561 cumulative IPC: 2.09669 (Simulation time: 1 hr 2 min 50 sec) 
Heartbeat CPU 0 instructions: 840000001 cycles: 301920662 heartbeat IPC: 1.97602 cumulative IPC: 2.09293 (Simulation time: 1 hr 3 min 59 sec) 
Heartbeat CPU 0 instructions: 850000002 cycles: 306774982 heartbeat IPC: 2.06002 cumulative IPC: 2.09198 (Simulation time: 1 hr 4 min 51 sec) 
Heartbeat CPU 0 instructions: 860000000 cycles: 311602270 heartbeat IPC: 2.07156 cumulative IPC: 2.09141 (Simulation time: 1 hr 5 min 36 sec) 
Heartbeat CPU 0 instructions: 870000004 cycles: 316327914 heartbeat IPC: 2.11611 cumulative IPC: 2.09207 (Simulation time: 1 hr 6 min 21 sec) 
Heartbeat CPU 0 instructions: 880000002 cycles: 321045933 heartbeat IPC: 2.11953 cumulative IPC: 2.09278 (Simulation time: 1 hr 7 min 3 sec) 
Heartbeat CPU 0 instructions: 890000003 cycles: 325661783 heartbeat IPC: 2.16645 cumulative IPC: 2.09461 (Simulation time: 1 hr 7 min 45 sec) 
Heartbeat CPU 0 instructions: 900000001 cycles: 330309985 heartbeat IPC: 2.15137 cumulative IPC: 2.09599 (Simulation time: 1 hr 8 min 28 sec) 
Heartbeat CPU 0 instructions: 910000002 cycles: 335014902 heartbeat IPC: 2.12544 cumulative IPC: 2.0967 (Simulation time: 1 hr 9 min 14 sec) 
Heartbeat CPU 0 instructions: 920000004 cycles: 339798852 heartbeat IPC: 2.09032 cumulative IPC: 2.09655 (Simulation time: 1 hr 9 min 58 sec) 
Heartbeat CPU 0 instructions: 930000001 cycles: 344362886 heartbeat IPC: 2.19104 cumulative IPC: 2.09865 (Simulation time: 1 hr 10 min 41 sec) 
Heartbeat CPU 0 instructions: 940000003 cycles: 349033292 heartbeat IPC: 2.14114 cumulative IPC: 2.0996 (Simulation time: 1 hr 11 min 23 sec) 
Heartbeat CPU 0 instructions: 950000003 cycles: 353803827 heartbeat IPC: 2.0962 cumulative IPC: 2.09952 (Simulation time: 1 hr 12 min 7 sec) 
Heartbeat CPU 0 instructions: 960000000 cycles: 358604965 heartbeat IPC: 2.08284 cumulative IPC: 2.09916 (Simulation time: 1 hr 12 min 50 sec) 
Heartbeat CPU 0 instructions: 970000000 cycles: 363222494 heartbeat IPC: 2.16566 cumulative IPC: 2.10053 (Simulation time: 1 hr 13 min 32 sec) 
Heartbeat CPU 0 instructions: 980000001 cycles: 368126296 heartbeat IPC: 2.03923 cumulative IPC: 2.09921 (Simulation time: 1 hr 14 min 16 sec) 
Heartbeat CPU 0 instructions: 990000004 cycles: 373118908 heartbeat IPC: 2.00296 cumulative IPC: 2.09716 (Simulation time: 1 hr 15 min 0 sec) 
Heartbeat CPU 0 instructions: 1000000000 cycles: 377978683 heartbeat IPC: 2.05771 cumulative IPC: 2.09635 (Simulation time: 1 hr 15 min 43 sec) 
Heartbeat CPU 0 instructions: 1010000003 cycles: 382874679 heartbeat IPC: 2.04249 cumulative IPC: 2.09527 (Simulation time: 1 hr 16 min 26 sec) 
Heartbeat CPU 0 instructions: 1020000003 cycles: 387611012 heartbeat IPC: 2.11134 cumulative IPC: 2.09558 (Simulation time: 1 hr 17 min 9 sec) 
Heartbeat CPU 0 instructions: 1030000000 cycles: 392479099 heartbeat IPC: 2.05419 cumulative IPC: 2.09478 (Simulation time: 1 hr 18 min 5 sec) 
Heartbeat CPU 0 instructions: 1040000002 cycles: 397227683 heartbeat IPC: 2.10589 cumulative IPC: 2.09499 (Simulation time: 1 hr 18 min 49 sec) 
Heartbeat CPU 0 instructions: 1050000003 cycles: 401930549 heartbeat IPC: 2.12636 cumulative IPC: 2.09555 (Simulation time: 1 hr 19 min 57 sec) 
Heartbeat CPU 0 instructions: 1060000000 cycles: 406666857 heartbeat IPC: 2.11135 cumulative IPC: 2.09583 (Simulation time: 1 hr 20 min 38 sec) 
Heartbeat CPU 0 instructions: 1070000001 cycles: 411364701 heartbeat IPC: 2.12864 cumulative IPC: 2.09639 (Simulation time: 1 hr 21 min 19 sec) 
Heartbeat CPU 0 instructions: 1080000004 cycles: 416144298 heartbeat IPC: 2.09223 cumulative IPC: 2.09632 (Simulation time: 1 hr 22 min 1 sec) 
Heartbeat CPU 0 instructions: 1090000000 cycles: 420935976 heartbeat IPC: 2.08695 cumulative IPC: 2.09616 (Simulation time: 1 hr 22 min 41 sec) 
Heartbeat CPU 0 instructions: 1100000002 cycles: 425610166 heartbeat IPC: 2.13941 cumulative IPC: 2.09687 (Simulation time: 1 hr 23 min 21 sec) 
Heartbeat CPU 0 instructions: 1110000003 cycles: 430465880 heartbeat IPC: 2.05943 cumulative IPC: 2.09624 (Simulation time: 1 hr 24 min 1 sec) 
Heartbeat CPU 0 instructions: 1120000002 cycles: 435494573 heartbeat IPC: 1.98859 cumulative IPC: 2.09442 (Simulation time: 1 hr 24 min 54 sec) 
Heartbeat CPU 0 instructions: 1130000000 cycles: 440497139 heartbeat IPC: 1.99897 cumulative IPC: 2.09283 (Simulation time: 1 hr 25 min 35 sec) 
Heartbeat CPU 0 instructions: 1140000001 cycles: 445378472 heartbeat IPC: 2.04862 cumulative IPC: 2.09212 (Simulation time: 1 hr 26 min 17 sec) 
Heartbeat CPU 0 instructions: 1150000001 cycles: 450313153 heartbeat IPC: 2.02647 cumulative IPC: 2.09108 (Simulation time: 1 hr 26 min 58 sec) 
Heartbeat CPU 0 instructions: 1160000001 cycles: 455282836 heartbeat IPC: 2.0122 cumulative IPC: 2.08984 (Simulation time: 1 hr 27 min 40 sec) 
Heartbeat CPU 0 instructions: 1170000002 cycles: 479756596 heartbeat IPC: 0.408601 cumulative IPC: 1.96892 (Simulation time: 1 hr 30 min 34 sec) 
Heartbeat CPU 0 instructions: 1180000002 cycles: 489648481 heartbeat IPC: 1.01093 cumulative IPC: 1.94186 (Simulation time: 1 hr 32 min 19 sec) 
Heartbeat CPU 0 instructions: 1190000003 cycles: 494257525 heartbeat IPC: 2.16965 cumulative IPC: 1.94482 (Simulation time: 1 hr 33 min 6 sec) 
Heartbeat CPU 0 instructions: 1200000000 cycles: 499003098 heartbeat IPC: 2.10723 cumulative IPC: 1.94697 (Simulation time: 1 hr 33 min 52 sec) 
Heartbeat CPU 0 instructions: 1210000003 cycles: 503573892 heartbeat IPC: 2.1878 cumulative IPC: 1.94999 (Simulation time: 1 hr 34 min 40 sec) 
Heartbeat CPU 0 instructions: 1220000000 cycles: 508166180 heartbeat IPC: 2.17756 cumulative IPC: 1.95282 (Simulation time: 1 hr 35 min 26 sec) 
Heartbeat CPU 0 instructions: 1230000003 cycles: 512902056 heartbeat IPC: 2.11154 cumulative IPC: 1.95484 (Simulation time: 1 hr 36 min 14 sec) 
Heartbeat CPU 0 instructions: 1240000004 cycles: 517483670 heartbeat IPC: 2.18264 cumulative IPC: 1.9576 (Simulation time: 1 hr 37 min 1 sec) 
Heartbeat CPU 0 instructions: 1250000000 cycles: 522174576 heartbeat IPC: 2.13178 cumulative IPC: 1.95973 (Simulation time: 1 hr 37 min 58 sec) 
Heartbeat CPU 0 instructions: 1260000002 cycles: 526795330 heartbeat IPC: 2.16415 cumulative IPC: 1.96217 (Simulation time: 1 hr 39 min 16 sec) 
Heartbeat CPU 0 instructions: 1270000003 cycles: 531361658 heartbeat IPC: 2.18994 cumulative IPC: 1.96483 (Simulation time: 1 hr 40 min 3 sec) 
Heartbeat CPU 0 instructions: 1280000003 cycles: 536065452 heartbeat IPC: 2.12594 cumulative IPC: 1.96674 (Simulation time: 1 hr 40 min 50 sec) 
Heartbeat CPU 0 instructions: 1290000001 cycles: 540683288 heartbeat IPC: 2.16552 cumulative IPC: 1.96902 (Simulation time: 1 hr 41 min 36 sec) 
Heartbeat CPU 0 instructions: 1300000002 cycles: 545236414 heartbeat IPC: 2.19629 cumulative IPC: 1.97157 (Simulation time: 1 hr 42 min 23 sec) 
Heartbeat CPU 0 instructions: 1310000000 cycles: 550030926 heartbeat IPC: 2.08572 cumulative IPC: 1.97291 (Simulation time: 1 hr 43 min 10 sec) 
Heartbeat CPU 0 instructions: 1320000001 cycles: 554608176 heartbeat IPC: 2.18472 cumulative IPC: 1.97524 (Simulation time: 1 hr 43 min 57 sec) 
Heartbeat CPU 0 instructions: 1330000004 cycles: 559186871 heartbeat IPC: 2.18403 cumulative IPC: 1.97752 (Simulation time: 1 hr 44 min 44 sec) 
Heartbeat CPU 0 instructions: 1340000004 cycles: 563885825 heartbeat IPC: 2.12813 cumulative IPC: 1.97919 (Simulation time: 1 hr 45 min 31 sec) 
Heartbeat CPU 0 instructions: 1350000001 cycles: 568480654 heartbeat IPC: 2.17636 cumulative IPC: 1.9813 (Simulation time: 1 hr 46 min 17 sec) 
Heartbeat CPU 0 instructions: 1360000001 cycles: 573058557 heartbeat IPC: 2.18441 cumulative IPC: 1.98344 (Simulation time: 1 hr 47 min 4 sec) 
Heartbeat CPU 0 instructions: 1370000000 cycles: 577844574 heartbeat IPC: 2.08942 cumulative IPC: 1.9846 (Simulation time: 1 hr 47 min 50 sec) 
Heartbeat CPU 0 instructions: 1380000003 cycles: 582424596 heartbeat IPC: 2.1834 cumulative IPC: 1.98666 (Simulation time: 1 hr 48 min 37 sec) 
Heartbeat CPU 0 instructions: 1390000002 cycles: 587105201 heartbeat IPC: 2.13648 cumulative IPC: 1.98822 (Simulation time: 1 hr 49 min 24 sec) 
Heartbeat CPU 0 instructions: 1400000000 cycles: 591718435 heartbeat IPC: 2.16768 cumulative IPC: 1.99005 (Simulation time: 1 hr 50 min 11 sec) 
Heartbeat CPU 0 instructions: 1410000001 cycles: 596287859 heartbeat IPC: 2.18846 cumulative IPC: 1.99204 (Simulation time: 1 hr 50 min 57 sec) 
Heartbeat CPU 0 instructions: 1420000002 cycles: 601000933 heartbeat IPC: 2.12176 cumulative IPC: 1.99336 (Simulation time: 1 hr 51 min 44 sec) 
Heartbeat CPU 0 instructions: 1430000000 cycles: 605617241 heartbeat IPC: 2.16623 cumulative IPC: 1.99507 (Simulation time: 1 hr 52 min 31 sec) 
Heartbeat CPU 0 instructions: 1440000000 cycles: 610172712 heartbeat IPC: 2.19516 cumulative IPC: 1.99701 (Simulation time: 1 hr 53 min 21 sec) 
Heartbeat CPU 0 instructions: 1450000003 cycles: 614930976 heartbeat IPC: 2.10161 cumulative IPC: 1.99806 (Simulation time: 1 hr 54 min 11 sec) 
Heartbeat CPU 0 instructions: 1460000000 cycles: 619518049 heartbeat IPC: 2.18004 cumulative IPC: 1.9998 (Simulation time: 1 hr 55 min 14 sec) 
Heartbeat CPU 0 instructions: 1470000003 cycles: 624205970 heartbeat IPC: 2.13314 cumulative IPC: 2.00109 (Simulation time: 1 hr 56 min 2 sec) 
Heartbeat CPU 0 instructions: 1480000000 cycles: 628846736 heartbeat IPC: 2.15482 cumulative IPC: 2.00254 (Simulation time: 1 hr 56 min 49 sec) 
Heartbeat CPU 0 instructions: 1490000003 cycles: 633402669 heartbeat IPC: 2.19494 cumulative IPC: 2.00432 (Simulation time: 1 hr 57 min 37 sec) 
Heartbeat CPU 0 instructions: 1500000003 cycles: 638137486 heartbeat IPC: 2.11201 cumulative IPC: 2.00534 (Simulation time: 1 hr 58 min 23 sec) 
Heartbeat CPU 0 instructions: 1510000003 cycles: 642714579 heartbeat IPC: 2.18479 cumulative IPC: 2.00697 (Simulation time: 1 hr 59 min 10 sec) 
Heartbeat CPU 0 instructions: 1520000003 cycles: 647258748 heartbeat IPC: 2.20062 cumulative IPC: 2.00871 (Simulation time: 1 hr 59 min 59 sec) 
Heartbeat CPU 0 instructions: 1530000001 cycles: 651978730 heartbeat IPC: 2.11865 cumulative IPC: 2.00972 (Simulation time: 2 hr 0 min 46 sec) 
Heartbeat CPU 0 instructions: 1540000002 cycles: 656572603 heartbeat IPC: 2.17681 cumulative IPC: 2.0112 (Simulation time: 2 hr 1 min 33 sec) 
Heartbeat CPU 0 instructions: 1550000001 cycles: 661216382 heartbeat IPC: 2.15342 cumulative IPC: 2.01247 (Simulation time: 2 hr 2 min 20 sec) 
Heartbeat CPU 0 instructions: 1560000004 cycles: 665784162 heartbeat IPC: 2.18925 cumulative IPC: 2.014 (Simulation time: 2 hr 3 min 7 sec) 
Heartbeat CPU 0 instructions: 1570000003 cycles: 670353861 heartbeat IPC: 2.18833 cumulative IPC: 2.0155 (Simulation time: 2 hr 3 min 53 sec) 
Heartbeat CPU 0 instructions: 1580000001 cycles: 675016404 heartbeat IPC: 2.14475 cumulative IPC: 2.01663 (Simulation time: 2 hr 4 min 40 sec) 
Heartbeat CPU 0 instructions: 1590000000 cycles: 679580579 heartbeat IPC: 2.19098 cumulative IPC: 2.0181 (Simulation time: 2 hr 5 min 27 sec) 
Heartbeat CPU 0 instructions: 1600000004 cycles: 684143205 heartbeat IPC: 2.19172 cumulative IPC: 2.01956 (Simulation time: 2 hr 6 min 13 sec) 
Heartbeat CPU 0 instructions: 1610000003 cycles: 688808511 heartbeat IPC: 2.14348 cumulative IPC: 2.02061 (Simulation time: 2 hr 7 min 0 sec) 
Heartbeat CPU 0 instructions: 1620000004 cycles: 693408326 heartbeat IPC: 2.174 cumulative IPC: 2.02188 (Simulation time: 2 hr 7 min 47 sec) 
Heartbeat CPU 0 instructions: 1630000003 cycles: 697966292 heartbeat IPC: 2.19396 cumulative IPC: 2.02329 (Simulation time: 2 hr 8 min 34 sec) 
Heartbeat CPU 0 instructions: 1640000004 cycles: 702699946 heartbeat IPC: 2.11253 cumulative IPC: 2.02404 (Simulation time: 2 hr 9 min 21 sec) 
Heartbeat CPU 0 instructions: 1650000002 cycles: 707276258 heartbeat IPC: 2.18517 cumulative IPC: 2.02534 (Simulation time: 2 hr 10 min 10 sec) 
Heartbeat CPU 0 instructions: 1660000002 cycles: 711937183 heartbeat IPC: 2.1455 cumulative IPC: 2.02631 (Simulation time: 2 hr 11 min 1 sec) 
Heartbeat CPU 0 instructions: 1670000001 cycles: 716587069 heartbeat IPC: 2.15059 cumulative IPC: 2.02732 (Simulation time: 2 hr 11 min 47 sec) 
Heartbeat CPU 0 instructions: 1680000002 cycles: 721144748 heartbeat IPC: 2.1941 cumulative IPC: 2.02862 (Simulation time: 2 hr 12 min 34 sec) 
Heartbeat CPU 0 instructions: 1690000002 cycles: 725859997 heartbeat IPC: 2.12078 cumulative IPC: 2.02936 (Simulation time: 2 hr 13 min 21 sec) 
Heartbeat CPU 0 instructions: 1700000000 cycles: 730431295 heartbeat IPC: 2.18756 cumulative IPC: 2.03059 (Simulation time: 2 hr 14 min 8 sec) 
Heartbeat CPU 0 instructions: 1710000004 cycles: 734961851 heartbeat IPC: 2.20724 cumulative IPC: 2.03193 (Simulation time: 2 hr 14 min 54 sec) 
Heartbeat CPU 0 instructions: 1720000001 cycles: 739656374 heartbeat IPC: 2.13014 cumulative IPC: 2.0327 (Simulation time: 2 hr 15 min 41 sec) 
Heartbeat CPU 0 instructions: 1730000002 cycles: 744261759 heartbeat IPC: 2.17137 cumulative IPC: 2.03376 (Simulation time: 2 hr 16 min 27 sec) 
Heartbeat CPU 0 instructions: 1740000002 cycles: 748800561 heartbeat IPC: 2.20322 cumulative IPC: 2.03502 (Simulation time: 2 hr 17 min 14 sec) 
Heartbeat CPU 0 instructions: 1750000003 cycles: 753480173 heartbeat IPC: 2.13693 cumulative IPC: 2.03579 (Simulation time: 2 hr 18 min 0 sec) 
Heartbeat CPU 0 instructions: 1760000001 cycles: 758044877 heartbeat IPC: 2.19072 cumulative IPC: 2.03694 (Simulation time: 2 hr 18 min 47 sec) 
Heartbeat CPU 0 instructions: 1770000001 cycles: 762698112 heartbeat IPC: 2.14904 cumulative IPC: 2.03778 (Simulation time: 2 hr 19 min 34 sec) 
Heartbeat CPU 0 instructions: 1780000001 cycles: 767315885 heartbeat IPC: 2.16555 cumulative IPC: 2.03871 (Simulation time: 2 hr 20 min 21 sec) 
Heartbeat CPU 0 instructions: 1790000002 cycles: 771910575 heartbeat IPC: 2.17643 cumulative IPC: 2.03972 (Simulation time: 2 hr 21 min 9 sec) 
Heartbeat CPU 0 instructions: 1800000000 cycles: 776608101 heartbeat IPC: 2.12878 cumulative IPC: 2.04037 (Simulation time: 2 hr 21 min 56 sec) 
Heartbeat CPU 0 instructions: 1810000003 cycles: 781224163 heartbeat IPC: 2.16635 cumulative IPC: 2.04128 (Simulation time: 2 hr 22 min 44 sec) 
Heartbeat CPU 0 instructions: 1820000004 cycles: 785757595 heartbeat IPC: 2.20583 cumulative IPC: 2.04243 (Simulation time: 2 hr 23 min 32 sec) 
Heartbeat CPU 0 instructions: 1830000002 cycles: 790522594 heartbeat IPC: 2.09864 cumulative IPC: 2.04284 (Simulation time: 2 hr 24 min 19 sec) 
Heartbeat CPU 0 instructions: 1840000004 cycles: 795100775 heartbeat IPC: 2.18427 cumulative IPC: 2.04383 (Simulation time: 2 hr 25 min 7 sec) 
Heartbeat CPU 0 instructions: 1850000003 cycles: 799796678 heartbeat IPC: 2.12952 cumulative IPC: 2.04444 (Simulation time: 2 hr 25 min 55 sec) 
Heartbeat CPU 0 instructions: 1860000003 cycles: 804422497 heartbeat IPC: 2.16178 cumulative IPC: 2.04526 (Simulation time: 2 hr 26 min 44 sec) 
Heartbeat CPU 0 instructions: 1870000000 cycles: 808983233 heartbeat IPC: 2.19263 cumulative IPC: 2.04626 (Simulation time: 2 hr 27 min 31 sec) 
Heartbeat CPU 0 instructions: 1880000000 cycles: 813643948 heartbeat IPC: 2.14559 cumulative IPC: 2.04695 (Simulation time: 2 hr 28 min 19 sec) 
Heartbeat CPU 0 instructions: 1890000004 cycles: 818248737 heartbeat IPC: 2.17165 cumulative IPC: 2.04779 (Simulation time: 2 hr 29 min 5 sec) 
Heartbeat CPU 0 instructions: 1900000001 cycles: 822800201 heartbeat IPC: 2.19709 cumulative IPC: 2.04879 (Simulation time: 2 hr 29 min 52 sec) 
Heartbeat CPU 0 instructions: 1910000000 cycles: 827492223 heartbeat IPC: 2.13128 cumulative IPC: 2.04935 (Simulation time: 2 hr 30 min 39 sec) 
Heartbeat CPU 0 instructions: 1920000001 cycles: 832095801 heartbeat IPC: 2.17222 cumulative IPC: 2.05017 (Simulation time: 2 hr 31 min 26 sec) 
Heartbeat CPU 0 instructions: 1930000002 cycles: 836752737 heartbeat IPC: 2.14733 cumulative IPC: 2.05082 (Simulation time: 2 hr 32 min 12 sec) 
Heartbeat CPU 0 instructions: 1940000000 cycles: 841411501 heartbeat IPC: 2.14649 cumulative IPC: 2.05145 (Simulation time: 2 hr 32 min 59 sec) 
Heartbeat CPU 0 instructions: 1950000001 cycles: 846022299 heartbeat IPC: 2.16882 cumulative IPC: 2.05222 (Simulation time: 2 hr 33 min 45 sec) 
Heartbeat CPU 0 instructions: 1960000003 cycles: 850722616 heartbeat IPC: 2.12752 cumulative IPC: 2.05271 (Simulation time: 2 hr 34 min 31 sec) 
Heartbeat CPU 0 instructions: 1970000001 cycles: 855363481 heartbeat IPC: 2.15477 cumulative IPC: 2.05338 (Simulation time: 2 hr 35 min 19 sec) 
Heartbeat CPU 0 instructions: 1980000000 cycles: 859908461 heartbeat IPC: 2.20023 cumulative IPC: 2.0543 (Simulation time: 2 hr 36 min 6 sec) 
Heartbeat CPU 0 instructions: 1990000004 cycles: 864627378 heartbeat IPC: 2.11913 cumulative IPC: 2.05472 (Simulation time: 2 hr 36 min 52 sec) 
*** Reached end of trace: traces/444.namd-321B.champsimtrace.xz
Heartbeat CPU 0 instructions: 2000000000 cycles: 869220705 heartbeat IPC: 2.17707 cumulative IPC: 2.05549 (Simulation time: 2 hr 37 min 39 sec) 
Finished CPU 0 instructions: 1500000001 cycles: 729751372 cumulative IPC: 2.05549 (Simulation time: 2 hr 37 min 39 sec) 

ChampSim completed all CPUs

Region of Interest Statistics

CPU 0 cumulative IPC: 2.05549 instructions: 1500000001 cycles: 729751372
cpu0_DTLB TOTAL     ACCESS:  292577943  HIT:  292432736  MISS:     145207
cpu0_DTLB LOAD      ACCESS:  213356904  HIT:  213225019  MISS:     131885
cpu0_DTLB RFO       ACCESS:   79221039  HIT:   79207717  MISS:      13322
cpu0_DTLB PREFETCH  ACCESS:          0  HIT:          0  MISS:          0
cpu0_DTLB WRITEBACK ACCESS:          0  HIT:          0  MISS:          0
cpu0_DTLB TRANSLATION ACCESS:          0  HIT:          0  MISS:          0
cpu0_DTLB PREFETCH  REQUESTED:          0  ISSUED:          0  USEFUL:          0  USELESS:          0
cpu0_DTLB AVERAGE MISS LATENCY: 17.611 cycles
cpu0_ITLB TOTAL     ACCESS:   54619316  HIT:   54619290  MISS:         26
cpu0_ITLB LOAD      ACCESS:   54619316  HIT:   54619290  MISS:         26
cpu0_ITLB RFO       ACCESS:          0  HIT:          0  MISS:          0
cpu0_ITLB PREFETCH  ACCESS:          0  HIT:          0  MISS:          0
cpu0_ITLB WRITEBACK ACCESS:          0  HIT:          0  MISS:          0
cpu0_ITLB TRANSLATION ACCESS:          0  HIT:          0  MISS:          0
cpu0_ITLB PREFETCH  REQUESTED:          0  ISSUED:          0  USEFUL:          0  USELESS:          0
cpu0_ITLB AVERAGE MISS LATENCY: 239.846 cycles
cpu0_L1I TOTAL     ACCESS:   64557421  HIT:   64557054  MISS:        367
cpu0_L1I LOAD      ACCESS:   64557421  HIT:   64557054  MISS:        367
cpu0_L1I RFO       ACCESS:          0  HIT:          0  MISS:          0
cpu0_L1I PREFETCH  ACCESS:          0  HIT:          0  MISS:          0
cpu0_L1I WRITEBACK ACCESS:          0  HIT:          0  MISS:          0
cpu0_L1I TRANSLATION ACCESS:          0  HIT:          0  MISS:          0
cpu0_L1I PREFETCH  REQUESTED:          0  ISSUED:          0  USEFUL:          0  USELESS:          0
cpu0_L1I AVERAGE MISS LATENCY: 235.635 cycles
cpu0_STLB TOTAL     ACCESS:     145233  HIT:     139340  MISS:       5893
cpu0_STLB LOAD      ACCESS:     131911  HIT:     128549  MISS:       3362
cpu0_STLB RFO       ACCESS:      13322  HIT:      10791  MISS:       2531
cpu0_STLB PREFETCH  ACCESS:          0  HIT:          0  MISS:          0
cpu0_STLB WRITEBACK ACCESS:          0  HIT:          0  MISS:          0
cpu0_STLB TRANSLATION ACCESS:          0  HIT:          0  MISS:          0
cpu0_STLB PREFETCH  REQUESTED:          0  ISSUED:          0  USEFUL:          0  USELESS:          0
cpu0_STLB AVERAGE MISS LATENCY: 213.193 cycles
cpu0_L1D TOTAL     ACCESS:  339177211  HIT:  333234105  MISS:    5943106
cpu0_L1D LOAD      ACCESS:  217720605  HIT:  212171207  MISS:    5549398
cpu0_L1D RFO       ACCESS:  121451014  HIT:  121057927  MISS:     393087
cpu0_L1D PREFETCH  ACCESS:          0  HIT:          0  MISS:          0
cpu0_L1D WRITEBACK ACCESS:          0  HIT:          0  MISS:          0
cpu0_L1D TRANSLATION ACCESS:       5592  HIT:       4971  MISS:        621
cpu0_L1D PREFETCH  REQUESTED:          0  ISSUED:          0  USEFUL:          0  USELESS:          0
cpu0_L1D AVERAGE MISS LATENCY: 72.304 cycles
cpu0_L2C TOTAL     ACCESS:    7816676  HIT:    7397786  MISS:     418890
cpu0_L2C LOAD      ACCESS:    5549513  HIT:    5285029  MISS:     264484
cpu0_L2C RFO       ACCESS:     392942  HIT:     238581  MISS:     154361
cpu0_L2C PREFETCH  ACCESS:          0  HIT:          0  MISS:          0
cpu0_L2C WRITEBACK ACCESS:    1873600  HIT:    1873587  MISS:         13
cpu0_L2C TRANSLATION ACCESS:        621  HIT:        589  MISS:         32
cpu0_L2C PREFETCH  REQUESTED:          0  ISSUED:          0  USEFUL:          0  USELESS:          0
cpu0_L2C AVERAGE MISS LATENCY: 869.845 cycles
LLC TOTAL     ACCESS:     598478  HIT:     209193  MISS:     389285
LLC LOAD      ACCESS:     264484  HIT:      24227  MISS:     240257
LLC RFO       ACCESS:     154354  HIT:       5433  MISS:     148921
LLC PREFETCH  ACCESS:          0  HIT:          0  MISS:          0
LLC WRITEBACK ACCESS:     179608  HIT:     179516  MISS:         92
LLC TRANSLATION ACCESS:         32  HIT:         17  MISS:         15
LLC PREFETCH  REQUESTED:          0  ISSUED:          0  USEFUL:          0  USELESS:          0
LLC AVERAGE MISS LATENCY: 913.401 cycles
~~~~~~~~~~Reuse Distance Profiler output~~~~~~~~~~
0	38494720	12371344
1	23763776	17469728
2	52198704	23931696
3	43622304	26235008
4	38248848	23897584
5	25889456	21017856
6	23334528	20604416
7	15907744	14687120
8	9621200	8569456
9	9343872	8145328
10	8937568	5987968
11	4897328	2761744
12	7547328	5858592
13	3835456	2956992
14	3637488	2940208
15	3744640	3212592
16	3375920	3159104
17	1825376	1698032
18	1785952	1656560
19	2188112	1886560
20	1227664	1024176
21	1647184	432912
22	1584704	294304
23	1778096	219232
24	2350064	572368
25	1869040	589664
26	2762480	1847440
27	2071536	1249776
28	1298432	932032
29	3537552	2002128
30	2284800	1528880
31	1720000	1476640
32	7019536	5249968
33	5421520	4169776
34	2221856	1717600
35	2164560	1549056
36	2785056	1737360
37	1408464	1144000
38	2474080	2096992
39	1760448	882512
40	2355504	733904
41	1769072	686320
42	819440	370384
43	573376	204224
44	869328	157216
45	1545632	948672
46	1509616	1003904
47	2104672	701744
48	1783760	418768
49	947904	269392
50	551120	230320
51	699600	430560
52	1155696	847104
53	1178320	925392
54	1410672	1250576
55	6246704	5913568
56	6650624	6242320
57	3894176	3660672
58	1521808	1431200
59	801552	756768
60	671440	638592
61	380320	352128
62	191728	150480
63	147280	104320
64	236496	190592
66	204800	179152
68	130672	113968
70	100560	80544
72	146080	110256
74	166688	141760
76	110176	85472
78	58976	31216
80	40352	8080
82	33984	9296
84	128144	109008
86	283408	268096
88	119200	110784
90	50624	45104
92	39904	34560
94	22224	18496
96	20352	16256
98	58144	55216
100	55712	53024
102	51520	48256
104	57392	54352
106	72384	69568
108	89840	86256
110	254480	250608
112	384512	380976
114	235520	232352
116	96672	93568
118	103536	100720
120	77328	74720
122	33824	32048
124	21808	19632
126	18352	15776
128	36608	29744
132	60000	54048
136	27200	24400
140	20784	18512
144	23200	20752
148	50656	48736
152	37824	36304
156	44592	42240
160	72880	71104
164	163264	161360
168	357248	355568
172	162560	161184
176	82976	81808
180	50800	49360
184	49184	47808
188	27168	25824
192	15824	14336
196	31424	30368
200	35248	34320
204	16960	15856
208	17792	16768
212	13520	12432
216	20832	19664
220	39056	38176
224	61360	60096
228	42896	42016
232	44400	43488
236	25872	24896
240	16528	15808
244	17680	16992
248	15040	14144
252	16960	16272
256	45360	43856
264	66576	65184
272	38928	37552
280	70944	69728
288	37680	36240
296	71296	69712
304	35744	34464
312	33376	32336
320	31280	30272
328	57120	55632
336	85696	84672
344	40848	39760
352	33200	32144
360	45568	44224
368	59712	58656
376	34272	33328
384	38016	37072
392	71808	70768
400	61984	60736
408	44464	43600
416	36016	35152
424	43808	42848
432	51760	50736
440	39552	38672
448	69408	68448
456	54304	53200
464	55168	54384
472	43376	42336
480	42064	41136
488	44816	43664
496	51536	50864
504	69376	68496
512	101680	99808
528	106528	104816
544	77408	75696
560	144528	142704
576	83280	81648
592	110080	108496
608	102304	100528
624	123568	121680
640	96240	94784
656	94992	93472
672	128720	127120
688	99824	98128
704	105888	104384
720	104864	103184
736	124256	122656
752	100928	99520
768	104976	103488
784	130336	128720
800	114464	112944
816	104976	103536
832	181728	180288
848	134176	132560
864	184656	183408
880	148464	146624
896	227872	226112
912	310752	308912
928	226624	224992
944	192640	191072
960	213520	211728
976	350592	349056
992	361584	360432
1008	398272	396768
1024	592672	589824
1056	405328	401952
1088	432976	429520
1120	411472	407904
1152	478048	474208
1184	300176	296256
1216	358192	354416
1248	277056	273280
1280	282000	278080
1312	310416	306848
1344	512016	508128
1376	551424	547552
1408	917440	913376
1440	1025904	1021840
1472	864752	860464
1504	764640	760544
1536	597120	593104
1568	425440	421216
1600	401840	397712
1632	432048	427936
1664	321808	317888
1696	432624	428176
1728	270304	265840
1760	285392	280752
1792	307776	303568
1824	208272	203984
1856	204304	200256
1888	197744	193712
1920	187984	184096
1952	180976	177104
1984	181504	177392
2016	172976	169024
2048	339184	331616
2112	325536	317472
2176	311792	304224
2240	304464	297296
2304	297744	290832
2368	291520	283760
2432	288688	281904
2496	274784	267488
2560	278592	271712
2624	269456	262912
2688	260640	254208
2752	261504	254704
2816	257328	250480
2880	251168	244592
2944	242544	236032
3008	236608	230528
3072	240032	233296
3136	239232	233200
3200	233168	226976
3264	225200	219216
3328	218944	213360
3392	217248	210928
3456	226704	221136
3520	218464	213232
3584	211664	205952
3648	211904	206464
3712	207792	202128
3776	206816	201648
3840	197920	192976
3904	191808	186080
3968	192752	187840
4032	191312	186192
4096	368400	359120
4224	369008	359648
4352	354080	344816
4480	351024	342496
4608	338624	329056
4736	333744	325120
4864	325648	317040
4992	325440	316752
5120	318160	310096
5248	312480	304592
5376	303856	296176
5504	300624	293456
5632	293168	285600
5760	282368	274832
5888	281216	274016
6016	269184	261824
6144	269184	261600
6272	266032	259280
6400	259824	253504
6528	254960	248400
6656	254336	247552
6784	245152	239232
6912	238960	233120
7040	228976	223536
7168	230736	225280
7296	224960	219104
7424	224800	219296
7552	225264	219520
7680	212352	207008
7808	208160	202816
7936	208320	203184
8064	203568	198400
8192	395136	384896
8448	384576	374720
8704	365104	355680
8960	365056	355872
9216	340320	331824
9472	338768	330560
9728	321664	313088
9984	317168	309872
10240	301456	293888
10496	298224	291312
10752	281728	274688
11008	272752	266048
11264	260096	253664
11520	253296	247136
11776	244880	239200
12032	235696	229840
12288	224016	218336
12544	223344	218176
12800	214416	209024
13056	201504	196400
13312	191968	187392
13568	187536	182608
13824	179968	174960
14080	176896	172432
14336	175312	170560
14592	167904	162784
14848	163904	159472
15104	159088	154448
15360	156864	151888
15616	146944	142608
15872	144928	140976
16128	144032	140400
16384	275936	269152
16896	253888	246800
17408	254688	248528
17920	237088	231632
18432	225472	220080
18944	212720	207808
19456	202784	198448
19968	187440	183152
20480	177984	174176
20992	163168	159504
21504	155200	151520
22016	147872	144000
22528	140144	137072
23040	132032	129360
23552	120960	118176
24064	110160	107856
24576	105408	103072
25088	96864	94672
25600	94576	92240
26112	92720	90560
26624	80448	78512
27136	79024	77024
27648	78864	76880
28160	72960	71360
28672	67296	65616
29184	61440	60160
29696	57744	56224
30208	50544	49168
30720	57792	56112
31232	51760	50384
31744	50208	48944
32256	46784	45392
32768	87344	84944
33792	79680	77616
34816	71408	69376
35840	67424	65552
36864	66608	64384
37888	62400	60384
38912	57264	55344
39936	54640	52816
40960	50688	49296
41984	47440	45808
43008	44176	42848
44032	42784	41408
45056	40640	39424
46080	38000	36720
47104	36800	35824
48128	32704	31808
49152	34048	33056
50176	33600	32400
51200	31696	30736
52224	29520	28512
53248	28416	27680
54272	28064	26912
55296	26048	24944
56320	27360	26320
57344	25504	24784
58368	23360	22560
59392	23728	23104
60416	22576	21664
61440	21552	20560
62464	21168	20496
63488	19872	19232
64512	19344	18800
65536	37520	36304
67584	34432	33104
69632	33072	32016
71680	31232	30176
73728	28736	27696
75776	28480	27200
77824	26944	25408
79872	25328	23936
81920	23152	22368
83968	23296	22352
86016	22080	21472
88064	19504	18672
90112	19952	18288
92160	20416	17232
94208	19088	16576
96256	16448	15200
98304	14880	14336
100352	14768	14320
102400	15056	14496
104448	14352	13712
106496	12848	12176
108544	13872	12896
110592	12736	12080
112640	12064	11600
114688	10704	10304
116736	11040	10576
118784	10480	10192
120832	10608	10432
122880	9936	9728
124928	9744	9472
126976	9904	9584
129024	8512	8256
131072	17152	16576
135168	15936	15552
139264	14304	13952
143360	14864	14304
147456	13072	12656
151552	13616	13248
155648	12256	11920
159744	11808	11360
163840	11120	10688
167936	10576	10192
172032	9840	9392
176128	9312	9088
180224	9264	9056
184320	8080	7792
188416	7632	7312
192512	7744	7584
196608	7664	7424
200704	6928	6688
204800	6960	6752
208896	6512	6336
212992	6752	6592
217088	6336	6048
221184	5792	5632
225280	5984	5856
229376	5600	5472
233472	5584	5392
237568	5344	5200
241664	5200	5072
245760	4592	4384
249856	4960	4832
253952	4448	4304
258048	5072	4976
262144	8704	8416
270336	8576	8336
278528	7920	7264
286720	7088	6928
294912	7216	7008
303104	7056	6928
311296	6800	6608
319488	5744	5616
327680	5840	5696
335872	5488	5344
344064	5248	5104
352256	5936	5776
360448	6080	5920
368640	4816	4752
376832	5664	5568
385024	4656	4544
393216	5872	5776
401408	4592	4496
409600	4128	3984
417792	3616	3504
425984	3696	3584
434176	4352	4288
442368	3728	3696
450560	3568	3520
458752	3920	3824
466944	3792	3680
475136	3600	3536
483328	2976	2880
491520	3488	3440
499712	3472	3392
507904	2928	2848
516096	2944	2848
524288	5984	5744
540672	5872	5632
557056	6368	6256
573440	6016	5872
589824	6624	6512
606208	5616	5616
622592	5760	5648
638976	5792	5696
655360	4544	4368
671744	5312	5232
688128	4032	3984
704512	3712	3584
720896	4368	4288
737280	3680	3632
753664	3376	3344
770048	3440	3392
786432	3888	3824
802816	4768	4656
819200	3888	3840
835584	3936	3920
851968	3920	3856
868352	3824	3760
884736	3584	3520
901120	3440	3312
917504	2848	2848
933888	2384	2368
950272	2288	2256
966656	2688	2608
983040	2224	2192
999424	1632	1600
1015808	2080	2080
1032192	1920	1888
1048576	3920	3840
1081344	3328	3312
1114112	3280	3248
1146880	3312	3280
1179648	4512	4432
1212416	4656	4592
1245184	4096	4048
1277952	4336	4240
1310720	6256	6160
1343488	6688	6608
1376256	5888	5824
1409024	5792	5744
1441792	4944	4880
1474560	5664	5568
1507328	5456	5408
1540096	4448	4320
1572864	4208	4176
1605632	3376	3376
1638400	4304	4256
1671168	3264	3248
1703936	2576	2560
1736704	2768	2736
1769472	2448	2432
1802240	2528	2496
1835008	2000	1952
1867776	7936	1920
1900544	15328	2144
1933312	16320	2112
1966080	16416	1600
1998848	15360	1488
2031616	9184	1952
2064384	1760	1712
2097152	2960	2896
2162688	2848	2832
2228224	3248	3184
2293760	2896	2848
2359296	3024	3008
2424832	4080	4048
2490368	2480	2448
2555904	2480	2432
2621440	2624	2528
2686976	1792	1728
2752512	1312	1296
2818048	1568	1520
2883584	1216	1168
2949120	1664	1632
3014656	928	928
3080192	960	928
3145728	1024	976
3211264	1184	1136
3276800	944	928
3342336	1248	1216
3407872	1616	1600
3473408	880	864
3538944	672	656
3604480	624	592
3670016	928	896
3735552	800	768
3801088	720	704
3866624	848	832
3932160	464	416
3997696	608	592
4063232	832	832
4128768	928	880
4194304	1328	1312
4325376	1200	1152
4456448	1328	1280
4587520	1184	1104
4718592	1712	1680
4849664	848	848
4980736	1008	960
5111808	1392	1328
5242880	656	576
5373952	736	704
5505024	3056	3024
5636096	960	944
5767168	1072	1072
5898240	1168	1120
6029312	416	400
6160384	1152	1152
6291456	3056	2992
6422528	2000	1968
6553600	1136	1136
6684672	832	832
6815744	848	848
6946816	1040	1040
7077888	1728	1728
7208960	1856	1856
7340032	1248	1248
7471104	992	976
7602176	544	544
7733248	1088	1088
7864320	624	608
7995392	416	416
8126464	688	688
8257536	672	672
8388608	608	608
8650752	1424	1424
8912896	720	720
9175040	464	464
9437184	848	848
9699328	1296	1296
9961472	304	304
10223616	528	528
10485760	928	928
10747904	352	352
11010048	368	368
11272192	496	480
11534336	512	512
11796480	480	480
12058624	656	656
12320768	128	112
12582912	256	256
12845056	832	816
13107200	464	464
13369344	224	224
13631488	80	64
13893632	96	96
14155776	160	160
14417920	272	272
14680064	64	64
14942208	128	128
15204352	96	80
15466496	368	368
15728640	416	416
15990784	128	128
16252928	592	592
16515072	176	176
16777216	1520	1520
17301504	1168	1152
17825792	800	800
18350080	1200	1200
18874368	1392	1392
19398656	1328	1328
19922944	640	640
20447232	624	624
20971520	1600	1600
21495808	640	640
22020096	816	816
22544384	816	816
23068672	1360	1360
23592960	752	752
24117248	336	336
24641536	544	544
25165824	1184	1184
25690112	240	240
26214400	496	496
26738688	416	416
27262976	192	192
27787264	352	352
28311552	432	432
28835840	288	288
29360128	128	128
29884416	144	144
30408704	160	160
30932992	192	192
31457280	736	736
31981568	224	224
32505856	448	448
33030144	304	304
33554432	864	864
34603008	1104	1104
35651584	624	624
36700160	1632	1632
37748736	752	752
38797312	2256	2256
39845888	480	480
40894464	1056	1056
41943040	1392	1392
42991616	784	784
44040192	656	656
45088768	1040	1040
46137344	624	624
47185920	1120	1120
48234496	160	160
49283072	144	144
50331648	272	272
51380224	528	528
52428800	512	512
53477376	416	416
54525952	48	48
55574528	16	16
56623104	16	16
57671680	960	960
58720256	96	96
59768832	400	400
60817408	112	112
61865984	16	16
62914560	432	432
63963136	400	400
65011712	288	288
66060288	512	512
67108864	16	16
69206016	448	448
71303168	1424	1424
73400320	192	192
75497472	192	192
77594624	976	976
79691776	464	464
81788928	576	576
83886080	480	480
85983232	432	432
88080384	384	384
90177536	464	464
92274688	768	768
94371840	96	96
96468992	816	816
98566144	752	752
100663296	384	384
102760448	704	704
104857600	560	560
106954752	544	544
109051904	400	400
111149056	1104	1104
113246208	96	96
115343360	448	448
117440512	944	944
119537664	112	112
121634816	992	992
123731968	656	656
125829120	128	128
127926272	896	896
130023424	464	464
132120576	80	80
134217728	1248	1248
138412032	1072	1072
142606336	2016	2000
146800640	1264	1264
150994944	1328	1328
155189248	928	928
159383552	1552	1552
163577856	1600	1600
167772160	2464	2464
171966464	1392	1392
176160768	880	880
180355072	1200	1200
184549376	416	416
188743680	1520	1520
192937984	912	912
197132288	768	768
201326592	384	384
205520896	368	368
209715200	176	176
213909504	464	464
218103808	192	192
222298112	272	272
226492416	80	80
230686720	416	416
234881024	48	48
239075328	336	336
243269632	224	224
247463936	32	32
251658240	96	96
255852544	400	400
260046848	128	128
264241152	48	48
268435456	32	32
276824064	0	0
285212672	0	0
293601280	0	0
301989888	0	0
310378496	0	0
318767104	32	32
327155712	16	16
335544320	0	0
343932928	0	0
352321536	0	0
360710144	16	16
369098752	16	16
377487360	16	16
385875968	0	0
394264576	0	0
402653184	0	0
411041792	0	0
419430400	0	0
427819008	0	0
436207616	0	0
444596224	0	0
452984832	0	0
461373440	0	0
469762048	0	0
478150656	0	0
486539264	0	0
494927872	0	0
503316480	0	0
511705088	0	0
520093696	0	0
528482304	0	0
536870912	0	0
553648128	0	0
570425344	0	0
587202560	0	0
603979776	0	0
620756992	0	0
637534208	0	0
654311424	0	0
671088640	0	0
687865856	0	0
704643072	0	0
721420288	0	0
738197504	0	0
754974720	0	0
771751936	0	0
788529152	0	0
805306368	0	0
822083584	0	0
838860800	0	0
855638016	0	0
872415232	0	0
889192448	0	0
905969664	0	0
922746880	0	0
939524096	0	0
956301312	0	0
973078528	0	0
989855744	0	0
1006632960	0	0
1023410176	0	0
1040187392	0	0
1056964608	0	0
1073741824	0	0
1107296256	0	0
1140850688	0	0
1174405120	0	0
1207959552	0	0
1241513984	0	0
1275068416	0	0
1308622848	0	0
1342177280	0	0
1375731712	0	0
1409286144	0	0
1442840576	0	0
1476395008	0	0
1509949440	0	0
1543503872	0	0
1577058304	0	0
1610612736	0	0
1644167168	0	0
1677721600	0	0
1711276032	0	0
1744830464	0	0
1778384896	0	0
1811939328	0	0
1845493760	0	0
1879048192	0	0
1912602624	0	0
1946157056	0	0
1979711488	0	0
2013265920	0	0
2046820352	0	0
2080374784	0	0
2113929216	0	0
2147483648	0	0
2214592512	0	0
2281701376	0	0
2348810240	0	0
2415919104	0	0
2483027968	0	0
2550136832	0	0
2617245696	0	0
2684354560	0	0
2751463424	0	0
2818572288	0	0
2885681152	0	0
2952790016	0	0
3019898880	0	0
3087007744	0	0
3154116608	0	0
3221225472	0	0
3288334336	0	0
3355443200	0	0
3422552064	0	0
3489660928	0	0
3556769792	0	0
3623878656	0	0
3690987520	0	0
3758096384	0	0
3825205248	0	0
3892314112	0	0
3959422976	0	0
4026531840	0	0
4093640704	0	0
4160749568	0	0
4227858432	0	0
~~~~~~~~~~Reuse Distance Profiler output end~~~~~~~~~~

DRAM Statistics
 CHANNEL 0
 RQ ROW_BUFFER_HIT:      14842  ROW_BUFFER_MISS:     374334
 DBUS AVG_CONGESTED_CYCLE:    3.98012
 WQ ROW_BUFFER_HIT:      11166  ROW_BUFFER_MISS:     148810  FULL:          0


CPU 0 Branch Prediction Accuracy: 94.722% MPKI: 1.95351 Average ROB Occupancy at Mispredict: 90.2798
Branch type MPKI
BRANCH_DIRECT_JUMP: 3.86667e-05
BRANCH_INDIRECT: 8.66667e-06
BRANCH_CONDITIONAL: 1.95339
BRANCH_DIRECT_CALL: 3.2e-05
BRANCH_INDIRECT_CALL: 1e-05
BRANCH_RETURN: 3.33333e-05

