
*** ChampSim Multicore Out-of-Order Simulator ***

Warmup Instructions: 500000000
Simulation Instructions: 1500000000
Number of CPUs: 1
Off-chip DRAM Size: 4 GiB Channels: 1 Width: 64-bit Data Rate: 3200 MT/s

VirtualMemory physical capacity: 8588881920 num_ppages: 2096895
VirtualMemory page size: 4096 log2_page_size: 12

CPU 0 runs traces/445.gobmk-2B.champsimtrace.xz
CPU 0 Bimodal branch predictor
Basic BTB sets: 1024 ways: 8 indirect buffer size: 4096 RAS size: 64
Initializing LRU.
Initializing LRU.
Initializing LRU.
Initializing LRU.
Initializing rdLRU.
Initializing LRU.
Initializing LRU.
Heartbeat CPU 0 instructions: 10000002 cycles: 2579505 heartbeat IPC: 3.87671 cumulative IPC: 3.87671 (Simulation time: 0 hr 0 min 54 sec) 
Heartbeat CPU 0 instructions: 20000001 cycles: 5163422 heartbeat IPC: 3.87009 cumulative IPC: 3.8734 (Simulation time: 0 hr 1 min 42 sec) 
Heartbeat CPU 0 instructions: 30000000 cycles: 7753578 heartbeat IPC: 3.86077 cumulative IPC: 3.86918 (Simulation time: 0 hr 2 min 40 sec) 
Heartbeat CPU 0 instructions: 40000001 cycles: 10351228 heartbeat IPC: 3.84963 cumulative IPC: 3.86428 (Simulation time: 0 hr 3 min 40 sec) 
Heartbeat CPU 0 instructions: 50000002 cycles: 12930479 heartbeat IPC: 3.87709 cumulative IPC: 3.86683 (Simulation time: 0 hr 4 min 39 sec) 
Heartbeat CPU 0 instructions: 60000003 cycles: 15517095 heartbeat IPC: 3.86606 cumulative IPC: 3.8667 (Simulation time: 0 hr 5 min 38 sec) 
Heartbeat CPU 0 instructions: 70000002 cycles: 18075940 heartbeat IPC: 3.90801 cumulative IPC: 3.87255 (Simulation time: 0 hr 6 min 37 sec) 
Heartbeat CPU 0 instructions: 80000003 cycles: 20628639 heartbeat IPC: 3.91742 cumulative IPC: 3.8781 (Simulation time: 0 hr 7 min 36 sec) 
Heartbeat CPU 0 instructions: 90000002 cycles: 23200140 heartbeat IPC: 3.88878 cumulative IPC: 3.87929 (Simulation time: 0 hr 8 min 35 sec) 
Heartbeat CPU 0 instructions: 100000001 cycles: 25765870 heartbeat IPC: 3.89753 cumulative IPC: 3.8811 (Simulation time: 0 hr 9 min 34 sec) 
Heartbeat CPU 0 instructions: 110000003 cycles: 28343769 heartbeat IPC: 3.87913 cumulative IPC: 3.88092 (Simulation time: 0 hr 10 min 23 sec) 
Heartbeat CPU 0 instructions: 120000001 cycles: 30899500 heartbeat IPC: 3.91277 cumulative IPC: 3.88356 (Simulation time: 0 hr 11 min 5 sec) 
Heartbeat CPU 0 instructions: 130000002 cycles: 33463039 heartbeat IPC: 3.90086 cumulative IPC: 3.88488 (Simulation time: 0 hr 11 min 40 sec) 
Heartbeat CPU 0 instructions: 140000004 cycles: 36015910 heartbeat IPC: 3.91716 cumulative IPC: 3.88717 (Simulation time: 0 hr 12 min 22 sec) 
Heartbeat CPU 0 instructions: 150000001 cycles: 38595645 heartbeat IPC: 3.87637 cumulative IPC: 3.88645 (Simulation time: 0 hr 13 min 2 sec) 
Heartbeat CPU 0 instructions: 160000003 cycles: 41165097 heartbeat IPC: 3.89188 cumulative IPC: 3.88679 (Simulation time: 0 hr 13 min 41 sec) 
Heartbeat CPU 0 instructions: 170000001 cycles: 43745069 heartbeat IPC: 3.87601 cumulative IPC: 3.88615 (Simulation time: 0 hr 14 min 13 sec) 
Heartbeat CPU 0 instructions: 180000002 cycles: 46325525 heartbeat IPC: 3.87528 cumulative IPC: 3.88555 (Simulation time: 0 hr 14 min 46 sec) 
Heartbeat CPU 0 instructions: 190000000 cycles: 48913274 heartbeat IPC: 3.86436 cumulative IPC: 3.88443 (Simulation time: 0 hr 15 min 19 sec) 
Heartbeat CPU 0 instructions: 200000002 cycles: 51492823 heartbeat IPC: 3.87665 cumulative IPC: 3.88404 (Simulation time: 0 hr 15 min 51 sec) 
Heartbeat CPU 0 instructions: 210000000 cycles: 54060261 heartbeat IPC: 3.89493 cumulative IPC: 3.88455 (Simulation time: 0 hr 16 min 23 sec) 
Heartbeat CPU 0 instructions: 220000001 cycles: 56634269 heartbeat IPC: 3.88499 cumulative IPC: 3.88457 (Simulation time: 0 hr 16 min 56 sec) 
Heartbeat CPU 0 instructions: 230000001 cycles: 59218453 heartbeat IPC: 3.86969 cumulative IPC: 3.88392 (Simulation time: 0 hr 17 min 28 sec) 
Heartbeat CPU 0 instructions: 240000000 cycles: 61803067 heartbeat IPC: 3.86905 cumulative IPC: 3.8833 (Simulation time: 0 hr 18 min 1 sec) 
Heartbeat CPU 0 instructions: 250000001 cycles: 64381519 heartbeat IPC: 3.8783 cumulative IPC: 3.8831 (Simulation time: 0 hr 18 min 33 sec) 
Heartbeat CPU 0 instructions: 260000000 cycles: 66971789 heartbeat IPC: 3.8606 cumulative IPC: 3.88223 (Simulation time: 0 hr 19 min 5 sec) 
Heartbeat CPU 0 instructions: 270000001 cycles: 69541802 heartbeat IPC: 3.89103 cumulative IPC: 3.88256 (Simulation time: 0 hr 19 min 37 sec) 
Heartbeat CPU 0 instructions: 280000002 cycles: 72124811 heartbeat IPC: 3.87145 cumulative IPC: 3.88216 (Simulation time: 0 hr 20 min 10 sec) 
Heartbeat CPU 0 instructions: 290000002 cycles: 74716622 heartbeat IPC: 3.85831 cumulative IPC: 3.88133 (Simulation time: 0 hr 20 min 42 sec) 
Heartbeat CPU 0 instructions: 300000002 cycles: 77261192 heartbeat IPC: 3.92994 cumulative IPC: 3.88293 (Simulation time: 0 hr 21 min 20 sec) 
Heartbeat CPU 0 instructions: 310000002 cycles: 79784809 heartbeat IPC: 3.96257 cumulative IPC: 3.88545 (Simulation time: 0 hr 22 min 18 sec) 
Heartbeat CPU 0 instructions: 320000002 cycles: 82339963 heartbeat IPC: 3.91366 cumulative IPC: 3.88633 (Simulation time: 0 hr 23 min 16 sec) 
Heartbeat CPU 0 instructions: 330000003 cycles: 84913141 heartbeat IPC: 3.88625 cumulative IPC: 3.88632 (Simulation time: 0 hr 24 min 0 sec) 
Heartbeat CPU 0 instructions: 340000003 cycles: 87473399 heartbeat IPC: 3.90586 cumulative IPC: 3.8869 (Simulation time: 0 hr 24 min 37 sec) 
Heartbeat CPU 0 instructions: 350000002 cycles: 90006555 heartbeat IPC: 3.94764 cumulative IPC: 3.88861 (Simulation time: 0 hr 25 min 19 sec) 
Heartbeat CPU 0 instructions: 360000002 cycles: 92537522 heartbeat IPC: 3.95106 cumulative IPC: 3.89031 (Simulation time: 0 hr 25 min 52 sec) 
Heartbeat CPU 0 instructions: 370000000 cycles: 95094308 heartbeat IPC: 3.91116 cumulative IPC: 3.89087 (Simulation time: 0 hr 26 min 25 sec) 
Heartbeat CPU 0 instructions: 380000002 cycles: 97655670 heartbeat IPC: 3.90417 cumulative IPC: 3.89122 (Simulation time: 0 hr 26 min 58 sec) 
Heartbeat CPU 0 instructions: 390000000 cycles: 100201799 heartbeat IPC: 3.92753 cumulative IPC: 3.89215 (Simulation time: 0 hr 27 min 31 sec) 
Heartbeat CPU 0 instructions: 400000002 cycles: 102763482 heartbeat IPC: 3.90368 cumulative IPC: 3.89243 (Simulation time: 0 hr 28 min 4 sec) 
Heartbeat CPU 0 instructions: 410000001 cycles: 105324742 heartbeat IPC: 3.90433 cumulative IPC: 3.89272 (Simulation time: 0 hr 28 min 38 sec) 
Heartbeat CPU 0 instructions: 420000003 cycles: 107871429 heartbeat IPC: 3.92667 cumulative IPC: 3.89352 (Simulation time: 0 hr 29 min 11 sec) 
Heartbeat CPU 0 instructions: 430000000 cycles: 110392194 heartbeat IPC: 3.96705 cumulative IPC: 3.8952 (Simulation time: 0 hr 30 min 1 sec) 
Heartbeat CPU 0 instructions: 440000002 cycles: 112936890 heartbeat IPC: 3.92974 cumulative IPC: 3.89598 (Simulation time: 0 hr 30 min 45 sec) 
Heartbeat CPU 0 instructions: 450000001 cycles: 115474404 heartbeat IPC: 3.94086 cumulative IPC: 3.89697 (Simulation time: 0 hr 31 min 19 sec) 
Heartbeat CPU 0 instructions: 460000002 cycles: 118010290 heartbeat IPC: 3.9434 cumulative IPC: 3.89797 (Simulation time: 0 hr 31 min 54 sec) 
Heartbeat CPU 0 instructions: 470000001 cycles: 120551885 heartbeat IPC: 3.93454 cumulative IPC: 3.89874 (Simulation time: 0 hr 32 min 28 sec) 
Heartbeat CPU 0 instructions: 480000001 cycles: 123078235 heartbeat IPC: 3.95828 cumulative IPC: 3.89996 (Simulation time: 0 hr 33 min 2 sec) 
Heartbeat CPU 0 instructions: 490000000 cycles: 125645638 heartbeat IPC: 3.89499 cumulative IPC: 3.89986 (Simulation time: 0 hr 33 min 36 sec) 
Heartbeat CPU 0 instructions: 500000000 cycles: 128212666 heartbeat IPC: 3.89556 cumulative IPC: 3.89977 (Simulation time: 0 hr 34 min 9 sec) 

Warmup complete CPU 0 instructions: 500000004 cycles: 128212667 (Simulation time: 0 hr 34 min 9 sec) 

Heartbeat CPU 0 instructions: 510000000 cycles: 140486889 heartbeat IPC: 0.814716 cumulative IPC: 0.814715 (Simulation time: 0 hr 34 min 57 sec) 
Heartbeat CPU 0 instructions: 520000002 cycles: 152105391 heartbeat IPC: 0.860696 cumulative IPC: 0.837075 (Simulation time: 0 hr 35 min 39 sec) 
Heartbeat CPU 0 instructions: 530000001 cycles: 164525972 heartbeat IPC: 0.805115 cumulative IPC: 0.826143 (Simulation time: 0 hr 36 min 19 sec) 
Heartbeat CPU 0 instructions: 540000004 cycles: 176750420 heartbeat IPC: 0.818033 cumulative IPC: 0.824101 (Simulation time: 0 hr 36 min 59 sec) 
Heartbeat CPU 0 instructions: 550000001 cycles: 189124976 heartbeat IPC: 0.80811 cumulative IPC: 0.820852 (Simulation time: 0 hr 37 min 40 sec) 
Heartbeat CPU 0 instructions: 560000000 cycles: 201614310 heartbeat IPC: 0.800683 cumulative IPC: 0.81742 (Simulation time: 0 hr 38 min 21 sec) 
Heartbeat CPU 0 instructions: 570000002 cycles: 214087933 heartbeat IPC: 0.801692 cumulative IPC: 0.815136 (Simulation time: 0 hr 39 min 8 sec) 
Heartbeat CPU 0 instructions: 580000001 cycles: 226194354 heartbeat IPC: 0.826008 cumulative IPC: 0.816479 (Simulation time: 0 hr 40 min 0 sec) 
Heartbeat CPU 0 instructions: 590000003 cycles: 238201951 heartbeat IPC: 0.832806 cumulative IPC: 0.818262 (Simulation time: 0 hr 41 min 9 sec) 
Heartbeat CPU 0 instructions: 600000003 cycles: 249860660 heartbeat IPC: 0.857728 cumulative IPC: 0.822044 (Simulation time: 0 hr 41 min 56 sec) 
Heartbeat CPU 0 instructions: 610000000 cycles: 262857306 heartbeat IPC: 0.769429 cumulative IPC: 0.816965 (Simulation time: 0 hr 42 min 35 sec) 
Heartbeat CPU 0 instructions: 620000003 cycles: 275657365 heartbeat IPC: 0.781247 cumulative IPC: 0.813864 (Simulation time: 0 hr 43 min 13 sec) 
Heartbeat CPU 0 instructions: 630000004 cycles: 288364727 heartbeat IPC: 0.786945 cumulative IPC: 0.811729 (Simulation time: 0 hr 43 min 52 sec) 
Heartbeat CPU 0 instructions: 640000003 cycles: 300369859 heartbeat IPC: 0.832977 cumulative IPC: 0.81321 (Simulation time: 0 hr 44 min 30 sec) 
Heartbeat CPU 0 instructions: 650000003 cycles: 312192012 heartbeat IPC: 0.84587 cumulative IPC: 0.815309 (Simulation time: 0 hr 45 min 9 sec) 
Heartbeat CPU 0 instructions: 660000000 cycles: 323797779 heartbeat IPC: 0.86164 cumulative IPC: 0.818058 (Simulation time: 0 hr 45 min 48 sec) 
Heartbeat CPU 0 instructions: 670000002 cycles: 335418944 heartbeat IPC: 0.860499 cumulative IPC: 0.820438 (Simulation time: 0 hr 46 min 26 sec) 
Heartbeat CPU 0 instructions: 680000001 cycles: 346982034 heartbeat IPC: 0.864821 cumulative IPC: 0.822784 (Simulation time: 0 hr 47 min 11 sec) 
Heartbeat CPU 0 instructions: 690000000 cycles: 358185088 heartbeat IPC: 0.892614 cumulative IPC: 0.826186 (Simulation time: 0 hr 47 min 52 sec) 
Heartbeat CPU 0 instructions: 700000003 cycles: 369793876 heartbeat IPC: 0.861417 cumulative IPC: 0.827879 (Simulation time: 0 hr 48 min 29 sec) 
Heartbeat CPU 0 instructions: 710000002 cycles: 382337341 heartbeat IPC: 0.797228 cumulative IPC: 0.826366 (Simulation time: 0 hr 49 min 8 sec) 
Heartbeat CPU 0 instructions: 720000000 cycles: 393887922 heartbeat IPC: 0.865757 cumulative IPC: 0.828079 (Simulation time: 0 hr 49 min 47 sec) 
Heartbeat CPU 0 instructions: 730000002 cycles: 406275932 heartbeat IPC: 0.807232 cumulative IPC: 0.82715 (Simulation time: 0 hr 50 min 25 sec) 
Heartbeat CPU 0 instructions: 740000003 cycles: 418889269 heartbeat IPC: 0.792812 cumulative IPC: 0.82566 (Simulation time: 0 hr 51 min 5 sec) 
Heartbeat CPU 0 instructions: 750000000 cycles: 430652339 heartbeat IPC: 0.850118 cumulative IPC: 0.826611 (Simulation time: 0 hr 51 min 43 sec) 
Heartbeat CPU 0 instructions: 760000000 cycles: 442839069 heartbeat IPC: 0.820565 cumulative IPC: 0.826377 (Simulation time: 0 hr 52 min 21 sec) 
Heartbeat CPU 0 instructions: 770000001 cycles: 455234565 heartbeat IPC: 0.806745 cumulative IPC: 0.825633 (Simulation time: 0 hr 53 min 0 sec) 
Heartbeat CPU 0 instructions: 780000001 cycles: 467419828 heartbeat IPC: 0.820663 cumulative IPC: 0.825454 (Simulation time: 0 hr 53 min 38 sec) 
Heartbeat CPU 0 instructions: 790000000 cycles: 479802735 heartbeat IPC: 0.807565 cumulative IPC: 0.824824 (Simulation time: 0 hr 54 min 16 sec) 
Heartbeat CPU 0 instructions: 800000004 cycles: 491490530 heartbeat IPC: 0.855594 cumulative IPC: 0.825814 (Simulation time: 0 hr 54 min 53 sec) 
Heartbeat CPU 0 instructions: 810000004 cycles: 503826902 heartbeat IPC: 0.810611 cumulative IPC: 0.825315 (Simulation time: 0 hr 55 min 35 sec) 
Heartbeat CPU 0 instructions: 820000004 cycles: 515559307 heartbeat IPC: 0.85234 cumulative IPC: 0.826133 (Simulation time: 0 hr 56 min 13 sec) 
Heartbeat CPU 0 instructions: 830000001 cycles: 526436878 heartbeat IPC: 0.919323 cumulative IPC: 0.828679 (Simulation time: 0 hr 56 min 51 sec) 
Heartbeat CPU 0 instructions: 840000000 cycles: 537266609 heartbeat IPC: 0.923384 cumulative IPC: 0.831186 (Simulation time: 0 hr 57 min 28 sec) 
Heartbeat CPU 0 instructions: 850000000 cycles: 547980019 heartbeat IPC: 0.93341 cumulative IPC: 0.833795 (Simulation time: 0 hr 58 min 6 sec) 
Heartbeat CPU 0 instructions: 860000000 cycles: 558432585 heartbeat IPC: 0.956703 cumulative IPC: 0.836781 (Simulation time: 0 hr 58 min 43 sec) 
Heartbeat CPU 0 instructions: 870000002 cycles: 569465260 heartbeat IPC: 0.906399 cumulative IPC: 0.838522 (Simulation time: 0 hr 59 min 20 sec) 
Heartbeat CPU 0 instructions: 880000001 cycles: 581418741 heartbeat IPC: 0.836576 cumulative IPC: 0.838471 (Simulation time: 0 hr 59 min 57 sec) 
Heartbeat CPU 0 instructions: 890000003 cycles: 593315311 heartbeat IPC: 0.840579 cumulative IPC: 0.838525 (Simulation time: 1 hr 0 min 34 sec) 
Heartbeat CPU 0 instructions: 900000001 cycles: 605108001 heartbeat IPC: 0.847983 cumulative IPC: 0.838758 (Simulation time: 1 hr 1 min 12 sec) 
Heartbeat CPU 0 instructions: 910000000 cycles: 617418683 heartbeat IPC: 0.812303 cumulative IPC: 0.838093 (Simulation time: 1 hr 1 min 50 sec) 
Heartbeat CPU 0 instructions: 920000002 cycles: 628742444 heartbeat IPC: 0.883099 cumulative IPC: 0.839111 (Simulation time: 1 hr 2 min 27 sec) 
Heartbeat CPU 0 instructions: 930000000 cycles: 639618309 heartbeat IPC: 0.919467 cumulative IPC: 0.84082 (Simulation time: 1 hr 3 min 5 sec) 
Heartbeat CPU 0 instructions: 940000001 cycles: 650475025 heartbeat IPC: 0.921089 cumulative IPC: 0.842488 (Simulation time: 1 hr 3 min 42 sec) 
Heartbeat CPU 0 instructions: 950000000 cycles: 661207720 heartbeat IPC: 0.931732 cumulative IPC: 0.844285 (Simulation time: 1 hr 4 min 20 sec) 
Heartbeat CPU 0 instructions: 960000002 cycles: 671796623 heartbeat IPC: 0.944385 cumulative IPC: 0.846235 (Simulation time: 1 hr 4 min 58 sec) 
Heartbeat CPU 0 instructions: 970000000 cycles: 682330345 heartbeat IPC: 0.949332 cumulative IPC: 0.848195 (Simulation time: 1 hr 5 min 36 sec) 
Heartbeat CPU 0 instructions: 980000001 cycles: 693859287 heartbeat IPC: 0.867382 cumulative IPC: 0.848586 (Simulation time: 1 hr 6 min 15 sec) 
Heartbeat CPU 0 instructions: 990000002 cycles: 705650601 heartbeat IPC: 0.848082 cumulative IPC: 0.848576 (Simulation time: 1 hr 7 min 3 sec) 
Heartbeat CPU 0 instructions: 1000000000 cycles: 716721722 heartbeat IPC: 0.903251 cumulative IPC: 0.849605 (Simulation time: 1 hr 7 min 55 sec) 
Heartbeat CPU 0 instructions: 1010000000 cycles: 727693504 heartbeat IPC: 0.911429 cumulative IPC: 0.850736 (Simulation time: 1 hr 8 min 38 sec) 
Heartbeat CPU 0 instructions: 1020000004 cycles: 738195417 heartbeat IPC: 0.952208 cumulative IPC: 0.852483 (Simulation time: 1 hr 9 min 31 sec) 
Heartbeat CPU 0 instructions: 1030000000 cycles: 749566011 heartbeat IPC: 0.879461 cumulative IPC: 0.852977 (Simulation time: 1 hr 10 min 10 sec) 
Heartbeat CPU 0 instructions: 1040000004 cycles: 760494106 heartbeat IPC: 0.915073 cumulative IPC: 0.85405 (Simulation time: 1 hr 10 min 48 sec) 
Heartbeat CPU 0 instructions: 1050000002 cycles: 771409777 heartbeat IPC: 0.916114 cumulative IPC: 0.855103 (Simulation time: 1 hr 11 min 26 sec) 
Heartbeat CPU 0 instructions: 1060000000 cycles: 782358749 heartbeat IPC: 0.913328 cumulative IPC: 0.856078 (Simulation time: 1 hr 12 min 4 sec) 
Heartbeat CPU 0 instructions: 1070000003 cycles: 793291712 heartbeat IPC: 0.914665 cumulative IPC: 0.857041 (Simulation time: 1 hr 12 min 42 sec) 
Heartbeat CPU 0 instructions: 1080000000 cycles: 803996309 heartbeat IPC: 0.934178 cumulative IPC: 0.858263 (Simulation time: 1 hr 13 min 20 sec) 
Heartbeat CPU 0 instructions: 1090000002 cycles: 814679460 heartbeat IPC: 0.936054 cumulative IPC: 0.859473 (Simulation time: 1 hr 13 min 58 sec) 
Heartbeat CPU 0 instructions: 1100000002 cycles: 825321615 heartbeat IPC: 0.939659 cumulative IPC: 0.860698 (Simulation time: 1 hr 14 min 36 sec) 
Heartbeat CPU 0 instructions: 1110000002 cycles: 836131396 heartbeat IPC: 0.925088 cumulative IPC: 0.861681 (Simulation time: 1 hr 15 min 13 sec) 
Heartbeat CPU 0 instructions: 1120000001 cycles: 848250716 heartbeat IPC: 0.825129 cumulative IPC: 0.861066 (Simulation time: 1 hr 15 min 51 sec) 
Heartbeat CPU 0 instructions: 1130000000 cycles: 860347052 heartbeat IPC: 0.826697 cumulative IPC: 0.860498 (Simulation time: 1 hr 16 min 30 sec) 
Heartbeat CPU 0 instructions: 1140000000 cycles: 872758091 heartbeat IPC: 0.805734 cumulative IPC: 0.859585 (Simulation time: 1 hr 17 min 10 sec) 
Heartbeat CPU 0 instructions: 1150000001 cycles: 884744354 heartbeat IPC: 0.834288 cumulative IPC: 0.859184 (Simulation time: 1 hr 17 min 49 sec) 
Heartbeat CPU 0 instructions: 1160000000 cycles: 896608561 heartbeat IPC: 0.842871 cumulative IPC: 0.858932 (Simulation time: 1 hr 18 min 29 sec) 
Heartbeat CPU 0 instructions: 1170000002 cycles: 908407158 heartbeat IPC: 0.847559 cumulative IPC: 0.85876 (Simulation time: 1 hr 19 min 9 sec) 
Heartbeat CPU 0 instructions: 1180000000 cycles: 920176344 heartbeat IPC: 0.849676 cumulative IPC: 0.858625 (Simulation time: 1 hr 19 min 50 sec) 
Heartbeat CPU 0 instructions: 1190000002 cycles: 931079864 heartbeat IPC: 0.917135 cumulative IPC: 0.85942 (Simulation time: 1 hr 20 min 38 sec) 
Heartbeat CPU 0 instructions: 1200000003 cycles: 941961320 heartbeat IPC: 0.918995 cumulative IPC: 0.860216 (Simulation time: 1 hr 21 min 15 sec) 
Heartbeat CPU 0 instructions: 1210000002 cycles: 952932589 heartbeat IPC: 0.911471 cumulative IPC: 0.860898 (Simulation time: 1 hr 21 min 53 sec) 
Heartbeat CPU 0 instructions: 1220000000 cycles: 963694282 heartbeat IPC: 0.929222 cumulative IPC: 0.861778 (Simulation time: 1 hr 22 min 44 sec) 
Heartbeat CPU 0 instructions: 1230000004 cycles: 974380477 heartbeat IPC: 0.935787 cumulative IPC: 0.862713 (Simulation time: 1 hr 23 min 49 sec) 
Heartbeat CPU 0 instructions: 1240000000 cycles: 986504591 heartbeat IPC: 0.824802 cumulative IPC: 0.862177 (Simulation time: 1 hr 24 min 38 sec) 
Heartbeat CPU 0 instructions: 1250000000 cycles: 997513721 heartbeat IPC: 0.908337 cumulative IPC: 0.862762 (Simulation time: 1 hr 25 min 22 sec) 
Heartbeat CPU 0 instructions: 1260000004 cycles: 1008408190 heartbeat IPC: 0.917897 cumulative IPC: 0.863445 (Simulation time: 1 hr 26 min 10 sec) 
Heartbeat CPU 0 instructions: 1270000000 cycles: 1019268892 heartbeat IPC: 0.92075 cumulative IPC: 0.864143 (Simulation time: 1 hr 26 min 52 sec) 
Heartbeat CPU 0 instructions: 1280000000 cycles: 1030191234 heartbeat IPC: 0.915555 cumulative IPC: 0.864766 (Simulation time: 1 hr 27 min 30 sec) 
Heartbeat CPU 0 instructions: 1290000001 cycles: 1041001324 heartbeat IPC: 0.925062 cumulative IPC: 0.86548 (Simulation time: 1 hr 28 min 19 sec) 
Heartbeat CPU 0 instructions: 1300000004 cycles: 1051823471 heartbeat IPC: 0.924031 cumulative IPC: 0.866166 (Simulation time: 1 hr 29 min 10 sec) 
Heartbeat CPU 0 instructions: 1310000004 cycles: 1062563812 heartbeat IPC: 0.931069 cumulative IPC: 0.866912 (Simulation time: 1 hr 29 min 46 sec) 
Heartbeat CPU 0 instructions: 1320000000 cycles: 1073292786 heartbeat IPC: 0.932055 cumulative IPC: 0.867651 (Simulation time: 1 hr 30 min 22 sec) 
Heartbeat CPU 0 instructions: 1330000002 cycles: 1084031040 heartbeat IPC: 0.93125 cumulative IPC: 0.868366 (Simulation time: 1 hr 30 min 58 sec) 
Heartbeat CPU 0 instructions: 1340000003 cycles: 1094929287 heartbeat IPC: 0.917579 cumulative IPC: 0.868921 (Simulation time: 1 hr 31 min 35 sec) 
Heartbeat CPU 0 instructions: 1350000000 cycles: 1105813330 heartbeat IPC: 0.918776 cumulative IPC: 0.869476 (Simulation time: 1 hr 32 min 11 sec) 
Heartbeat CPU 0 instructions: 1360000000 cycles: 1116697874 heartbeat IPC: 0.918734 cumulative IPC: 0.870018 (Simulation time: 1 hr 32 min 49 sec) 
Heartbeat CPU 0 instructions: 1370000000 cycles: 1127631768 heartbeat IPC: 0.914587 cumulative IPC: 0.870506 (Simulation time: 1 hr 33 min 25 sec) 
Heartbeat CPU 0 instructions: 1380000002 cycles: 1138274049 heartbeat IPC: 0.939648 cumulative IPC: 0.871234 (Simulation time: 1 hr 34 min 1 sec) 
Heartbeat CPU 0 instructions: 1390000000 cycles: 1148824679 heartbeat IPC: 0.947811 cumulative IPC: 0.872026 (Simulation time: 1 hr 34 min 38 sec) 
Heartbeat CPU 0 instructions: 1400000000 cycles: 1160308997 heartbeat IPC: 0.870753 cumulative IPC: 0.872012 (Simulation time: 1 hr 35 min 14 sec) 
Heartbeat CPU 0 instructions: 1410000003 cycles: 1172435023 heartbeat IPC: 0.824673 cumulative IPC: 0.871462 (Simulation time: 1 hr 35 min 52 sec) 
Heartbeat CPU 0 instructions: 1420000002 cycles: 1184599403 heartbeat IPC: 0.822072 cumulative IPC: 0.870893 (Simulation time: 1 hr 36 min 30 sec) 
Heartbeat CPU 0 instructions: 1430000001 cycles: 1195957605 heartbeat IPC: 0.880421 cumulative IPC: 0.870995 (Simulation time: 1 hr 37 min 9 sec) 
Heartbeat CPU 0 instructions: 1440000000 cycles: 1207758188 heartbeat IPC: 0.847416 cumulative IPC: 0.870737 (Simulation time: 1 hr 37 min 47 sec) 
Heartbeat CPU 0 instructions: 1450000001 cycles: 1219142584 heartbeat IPC: 0.878395 cumulative IPC: 0.870817 (Simulation time: 1 hr 38 min 25 sec) 
Heartbeat CPU 0 instructions: 1460000001 cycles: 1230631005 heartbeat IPC: 0.870442 cumulative IPC: 0.870813 (Simulation time: 1 hr 39 min 4 sec) 
Heartbeat CPU 0 instructions: 1470000000 cycles: 1241884964 heartbeat IPC: 0.888576 cumulative IPC: 0.870992 (Simulation time: 1 hr 39 min 54 sec) 
Heartbeat CPU 0 instructions: 1480000000 cycles: 1252753597 heartbeat IPC: 0.920079 cumulative IPC: 0.871467 (Simulation time: 1 hr 40 min 38 sec) 
Heartbeat CPU 0 instructions: 1490000003 cycles: 1263005773 heartbeat IPC: 0.975403 cumulative IPC: 0.872406 (Simulation time: 1 hr 41 min 16 sec) 
Heartbeat CPU 0 instructions: 1500000000 cycles: 1273445032 heartbeat IPC: 0.957922 cumulative IPC: 0.873185 (Simulation time: 1 hr 41 min 55 sec) 
Heartbeat CPU 0 instructions: 1510000002 cycles: 1283773212 heartbeat IPC: 0.968225 cumulative IPC: 0.874035 (Simulation time: 1 hr 42 min 50 sec) 
Heartbeat CPU 0 instructions: 1520000000 cycles: 1294250709 heartbeat IPC: 0.954426 cumulative IPC: 0.874757 (Simulation time: 1 hr 43 min 31 sec) 
Heartbeat CPU 0 instructions: 1530000000 cycles: 1304940139 heartbeat IPC: 0.935504 cumulative IPC: 0.875309 (Simulation time: 1 hr 44 min 9 sec) 
Heartbeat CPU 0 instructions: 1540000000 cycles: 1315655877 heartbeat IPC: 0.933207 cumulative IPC: 0.875831 (Simulation time: 1 hr 44 min 46 sec) 
Heartbeat CPU 0 instructions: 1550000004 cycles: 1326445257 heartbeat IPC: 0.926838 cumulative IPC: 0.876291 (Simulation time: 1 hr 45 min 24 sec) 
Heartbeat CPU 0 instructions: 1560000002 cycles: 1337024958 heartbeat IPC: 0.945206 cumulative IPC: 0.876894 (Simulation time: 1 hr 46 min 1 sec) 
Heartbeat CPU 0 instructions: 1570000000 cycles: 1347552798 heartbeat IPC: 0.949862 cumulative IPC: 0.877524 (Simulation time: 1 hr 47 min 4 sec) 
Heartbeat CPU 0 instructions: 1580000003 cycles: 1358091202 heartbeat IPC: 0.948911 cumulative IPC: 0.878136 (Simulation time: 1 hr 47 min 51 sec) 
Heartbeat CPU 0 instructions: 1590000002 cycles: 1369223995 heartbeat IPC: 0.898247 cumulative IPC: 0.878316 (Simulation time: 1 hr 48 min 49 sec) 
Heartbeat CPU 0 instructions: 1600000003 cycles: 1379271375 heartbeat IPC: 0.995284 cumulative IPC: 0.879255 (Simulation time: 1 hr 49 min 41 sec) 
Heartbeat CPU 0 instructions: 1610000001 cycles: 1389299618 heartbeat IPC: 0.997183 cumulative IPC: 0.880193 (Simulation time: 1 hr 50 min 20 sec) 
Heartbeat CPU 0 instructions: 1620000001 cycles: 1399389547 heartbeat IPC: 0.991087 cumulative IPC: 0.881073 (Simulation time: 1 hr 50 min 59 sec) 
Heartbeat CPU 0 instructions: 1630000000 cycles: 1409679584 heartbeat IPC: 0.971814 cumulative IPC: 0.881802 (Simulation time: 1 hr 51 min 38 sec) 
Heartbeat CPU 0 instructions: 1640000002 cycles: 1419854808 heartbeat IPC: 0.98278 cumulative IPC: 0.882597 (Simulation time: 1 hr 52 min 16 sec) 
Heartbeat CPU 0 instructions: 1650000000 cycles: 1430246093 heartbeat IPC: 0.962345 cumulative IPC: 0.883234 (Simulation time: 1 hr 52 min 54 sec) 
Heartbeat CPU 0 instructions: 1660000001 cycles: 1440784938 heartbeat IPC: 0.948871 cumulative IPC: 0.883761 (Simulation time: 1 hr 53 min 32 sec) 
Heartbeat CPU 0 instructions: 1670000003 cycles: 1450944172 heartbeat IPC: 0.984326 cumulative IPC: 0.884533 (Simulation time: 1 hr 54 min 15 sec) 
Heartbeat CPU 0 instructions: 1680000000 cycles: 1461251925 heartbeat IPC: 0.970143 cumulative IPC: 0.885195 (Simulation time: 1 hr 54 min 57 sec) 
Heartbeat CPU 0 instructions: 1690000003 cycles: 1471468487 heartbeat IPC: 0.978803 cumulative IPC: 0.885907 (Simulation time: 1 hr 55 min 39 sec) 
Heartbeat CPU 0 instructions: 1700000000 cycles: 1482050256 heartbeat IPC: 0.945021 cumulative IPC: 0.886369 (Simulation time: 1 hr 56 min 17 sec) 
Heartbeat CPU 0 instructions: 1710000001 cycles: 1492784343 heartbeat IPC: 0.931612 cumulative IPC: 0.886725 (Simulation time: 1 hr 56 min 57 sec) 
Heartbeat CPU 0 instructions: 1720000004 cycles: 1503149582 heartbeat IPC: 0.964763 cumulative IPC: 0.887313 (Simulation time: 1 hr 57 min 36 sec) 
Heartbeat CPU 0 instructions: 1730000001 cycles: 1514170189 heartbeat IPC: 0.907391 cumulative IPC: 0.887473 (Simulation time: 1 hr 58 min 15 sec) 
Heartbeat CPU 0 instructions: 1740000004 cycles: 1525112436 heartbeat IPC: 0.913889 cumulative IPC: 0.88768 (Simulation time: 1 hr 58 min 54 sec) 
Heartbeat CPU 0 instructions: 1750000000 cycles: 1535812173 heartbeat IPC: 0.934602 cumulative IPC: 0.888037 (Simulation time: 1 hr 59 min 32 sec) 
Heartbeat CPU 0 instructions: 1760000001 cycles: 1546584490 heartbeat IPC: 0.928306 cumulative IPC: 0.888342 (Simulation time: 2 hr 0 min 10 sec) 
Heartbeat CPU 0 instructions: 1770000000 cycles: 1557473654 heartbeat IPC: 0.918344 cumulative IPC: 0.888571 (Simulation time: 2 hr 0 min 48 sec) 
Heartbeat CPU 0 instructions: 1780000000 cycles: 1567996393 heartbeat IPC: 0.950323 cumulative IPC: 0.889022 (Simulation time: 2 hr 1 min 27 sec) 
Heartbeat CPU 0 instructions: 1790000003 cycles: 1579283664 heartbeat IPC: 0.885954 cumulative IPC: 0.888999 (Simulation time: 2 hr 2 min 5 sec) 
Heartbeat CPU 0 instructions: 1800000000 cycles: 1591114610 heartbeat IPC: 0.845241 cumulative IPC: 0.888645 (Simulation time: 2 hr 2 min 44 sec) 
Heartbeat CPU 0 instructions: 1810000004 cycles: 1602223959 heartbeat IPC: 0.900143 cumulative IPC: 0.888731 (Simulation time: 2 hr 3 min 25 sec) 
Heartbeat CPU 0 instructions: 1820000001 cycles: 1613577951 heartbeat IPC: 0.880747 cumulative IPC: 0.88867 (Simulation time: 2 hr 4 min 6 sec) 
Heartbeat CPU 0 instructions: 1830000000 cycles: 1625547093 heartbeat IPC: 0.835482 cumulative IPC: 0.888245 (Simulation time: 2 hr 4 min 45 sec) 
Heartbeat CPU 0 instructions: 1840000000 cycles: 1636196296 heartbeat IPC: 0.939037 cumulative IPC: 0.888604 (Simulation time: 2 hr 5 min 23 sec) 
Heartbeat CPU 0 instructions: 1850000002 cycles: 1647963663 heartbeat IPC: 0.849808 cumulative IPC: 0.888303 (Simulation time: 2 hr 6 min 2 sec) 
Heartbeat CPU 0 instructions: 1860000002 cycles: 1659245116 heartbeat IPC: 0.886411 cumulative IPC: 0.888289 (Simulation time: 2 hr 6 min 40 sec) 
Heartbeat CPU 0 instructions: 1870000000 cycles: 1669859315 heartbeat IPC: 0.942134 cumulative IPC: 0.88866 (Simulation time: 2 hr 7 min 18 sec) 
Heartbeat CPU 0 instructions: 1880000000 cycles: 1680819361 heartbeat IPC: 0.912405 cumulative IPC: 0.888828 (Simulation time: 2 hr 7 min 56 sec) 
Heartbeat CPU 0 instructions: 1890000002 cycles: 1691527083 heartbeat IPC: 0.933906 cumulative IPC: 0.889137 (Simulation time: 2 hr 8 min 35 sec) 
Heartbeat CPU 0 instructions: 1900000002 cycles: 1701541884 heartbeat IPC: 0.998522 cumulative IPC: 0.889833 (Simulation time: 2 hr 9 min 13 sec) 
Heartbeat CPU 0 instructions: 1910000000 cycles: 1712125461 heartbeat IPC: 0.94486 cumulative IPC: 0.8902 (Simulation time: 2 hr 9 min 51 sec) 
Heartbeat CPU 0 instructions: 1920000001 cycles: 1722833268 heartbeat IPC: 0.933898 cumulative IPC: 0.890494 (Simulation time: 2 hr 10 min 32 sec) 
Heartbeat CPU 0 instructions: 1930000000 cycles: 1733579220 heartbeat IPC: 0.930583 cumulative IPC: 0.890762 (Simulation time: 2 hr 11 min 12 sec) 
Heartbeat CPU 0 instructions: 1940000000 cycles: 1744203863 heartbeat IPC: 0.941208 cumulative IPC: 0.891094 (Simulation time: 2 hr 11 min 51 sec) 
Heartbeat CPU 0 instructions: 1950000001 cycles: 1754836907 heartbeat IPC: 0.940465 cumulative IPC: 0.891417 (Simulation time: 2 hr 12 min 35 sec) 
Heartbeat CPU 0 instructions: 1960000000 cycles: 1765579638 heartbeat IPC: 0.930862 cumulative IPC: 0.891675 (Simulation time: 2 hr 13 min 15 sec) 
Heartbeat CPU 0 instructions: 1970000001 cycles: 1776515544 heartbeat IPC: 0.914419 cumulative IPC: 0.891826 (Simulation time: 2 hr 13 min 52 sec) 
Heartbeat CPU 0 instructions: 1980000001 cycles: 1786593238 heartbeat IPC: 0.99229 cumulative IPC: 0.892437 (Simulation time: 2 hr 14 min 31 sec) 
Heartbeat CPU 0 instructions: 1990000002 cycles: 1796913990 heartbeat IPC: 0.968922 cumulative IPC: 0.89291 (Simulation time: 2 hr 15 min 24 sec) 
*** Reached end of trace: traces/445.gobmk-2B.champsimtrace.xz
Heartbeat CPU 0 instructions: 2000000000 cycles: 1807196923 heartbeat IPC: 0.972485 cumulative IPC: 0.893397 (Simulation time: 2 hr 16 min 3 sec) 
Finished CPU 0 instructions: 1500000000 cycles: 1678984265 cumulative IPC: 0.893397 (Simulation time: 2 hr 16 min 3 sec) 

ChampSim completed all CPUs

Region of Interest Statistics

CPU 0 cumulative IPC: 0.893397 instructions: 1500000000 cycles: 1678984265
cpu0_DTLB TOTAL     ACCESS:  351966930  HIT:  351502565  MISS:     464365
cpu0_DTLB LOAD      ACCESS:  228553169  HIT:  228162359  MISS:     390810
cpu0_DTLB RFO       ACCESS:  123413761  HIT:  123340206  MISS:      73555
cpu0_DTLB PREFETCH  ACCESS:          0  HIT:          0  MISS:          0
cpu0_DTLB WRITEBACK ACCESS:          0  HIT:          0  MISS:          0
cpu0_DTLB TRANSLATION ACCESS:          0  HIT:          0  MISS:          0
cpu0_DTLB PREFETCH  REQUESTED:          0  ISSUED:          0  USEFUL:          0  USELESS:          0
cpu0_DTLB AVERAGE MISS LATENCY: 10.5541 cycles
cpu0_ITLB TOTAL     ACCESS:  128258945  HIT:  128255864  MISS:       3081
cpu0_ITLB LOAD      ACCESS:  128258945  HIT:  128255864  MISS:       3081
cpu0_ITLB RFO       ACCESS:          0  HIT:          0  MISS:          0
cpu0_ITLB PREFETCH  ACCESS:          0  HIT:          0  MISS:          0
cpu0_ITLB WRITEBACK ACCESS:          0  HIT:          0  MISS:          0
cpu0_ITLB TRANSLATION ACCESS:          0  HIT:          0  MISS:          0
cpu0_ITLB PREFETCH  REQUESTED:          0  ISSUED:          0  USEFUL:          0  USELESS:          0
cpu0_ITLB AVERAGE MISS LATENCY: 13.6303 cycles
cpu0_L1I TOTAL     ACCESS:  169381158  HIT:  165251661  MISS:    4129497
cpu0_L1I LOAD      ACCESS:  169381158  HIT:  165251661  MISS:    4129497
cpu0_L1I RFO       ACCESS:          0  HIT:          0  MISS:          0
cpu0_L1I PREFETCH  ACCESS:          0  HIT:          0  MISS:          0
cpu0_L1I WRITEBACK ACCESS:          0  HIT:          0  MISS:          0
cpu0_L1I TRANSLATION ACCESS:          0  HIT:          0  MISS:          0
cpu0_L1I PREFETCH  REQUESTED:          0  ISSUED:          0  USEFUL:          0  USELESS:          0
cpu0_L1I AVERAGE MISS LATENCY: 11.5515 cycles
cpu0_STLB TOTAL     ACCESS:     467446  HIT:     414999  MISS:      52447
cpu0_STLB LOAD      ACCESS:     393891  HIT:     343193  MISS:      50698
cpu0_STLB RFO       ACCESS:      73555  HIT:      71806  MISS:       1749
cpu0_STLB PREFETCH  ACCESS:          0  HIT:          0  MISS:          0
cpu0_STLB WRITEBACK ACCESS:          0  HIT:          0  MISS:          0
cpu0_STLB TRANSLATION ACCESS:          0  HIT:          0  MISS:          0
cpu0_STLB PREFETCH  REQUESTED:          0  ISSUED:          0  USEFUL:          0  USELESS:          0
cpu0_STLB AVERAGE MISS LATENCY: 13.9857 cycles
cpu0_L1D TOTAL     ACCESS:  449304692  HIT:  446281137  MISS:    3023555
cpu0_L1D LOAD      ACCESS:  226265967  HIT:  224643356  MISS:    1622611
cpu0_L1D RFO       ACCESS:  222986325  HIT:  221589142  MISS:    1397183
cpu0_L1D PREFETCH  ACCESS:          0  HIT:          0  MISS:          0
cpu0_L1D WRITEBACK ACCESS:          0  HIT:          0  MISS:          0
cpu0_L1D TRANSLATION ACCESS:      52400  HIT:      48639  MISS:       3761
cpu0_L1D PREFETCH  REQUESTED:          0  ISSUED:          0  USEFUL:          0  USELESS:          0
cpu0_L1D AVERAGE MISS LATENCY: 28.4594 cycles
cpu0_L2C TOTAL     ACCESS:    9009387  HIT:    8314641  MISS:     694746
cpu0_L2C LOAD      ACCESS:    5752078  HIT:    5199224  MISS:     552854
cpu0_L2C RFO       ACCESS:    1397154  HIT:    1256348  MISS:     140806
cpu0_L2C PREFETCH  ACCESS:          0  HIT:          0  MISS:          0
cpu0_L2C WRITEBACK ACCESS:    1856394  HIT:    1855429  MISS:        965
cpu0_L2C TRANSLATION ACCESS:       3761  HIT:       3640  MISS:        121
cpu0_L2C PREFETCH  REQUESTED:          0  ISSUED:          0  USEFUL:          0  USELESS:          0
cpu0_L2C AVERAGE MISS LATENCY: 78.902 cycles
LLC TOTAL     ACCESS:    1064999  HIT:     848086  MISS:     216913
LLC LOAD      ACCESS:     552854  HIT:     358016  MISS:     194838
LLC RFO       ACCESS:     140806  HIT:     120795  MISS:      20011
LLC PREFETCH  ACCESS:          0  HIT:          0  MISS:          0
LLC WRITEBACK ACCESS:     371218  HIT:     369162  MISS:       2056
LLC TRANSLATION ACCESS:        121  HIT:        113  MISS:          8
LLC PREFETCH  REQUESTED:          0  ISSUED:          0  USEFUL:          0  USELESS:          0
LLC AVERAGE MISS LATENCY: 185.546 cycles
~~~~~~~~~~Reuse Distance Profiler output~~~~~~~~~~
0	140703312	23054496
1	51825536	23927616
2	36763312	23527152
3	28162320	17026016
4	28296672	12292528
5	16826400	10480960
6	12838080	8066640
7	11096848	6847184
8	8633040	5851232
9	8619360	5807392
10	7704560	4528784
11	6079872	4033904
12	5454816	3540128
13	5468864	3495072
14	5277648	3409984
15	4892992	3363424
16	5570256	3116752
17	4273840	2785328
18	3858688	2612816
19	3728368	2540720
20	3532352	2539600
21	3336736	2414992
22	3019216	2194752
23	2830384	2119312
24	2712688	2035936
25	2599344	1949424
26	2493328	1901936
27	2329488	1778768
28	2220896	1690688
29	2602112	1677936
30	2118432	1546544
31	2050400	1434048
32	1980560	1381456
33	1929568	1368464
34	1785600	1252496
35	1736288	1238352
36	1642064	1153904
37	1595600	1074640
38	1627712	1082688
39	1718448	1195584
40	1502336	1019440
41	1372960	945088
42	1355024	943472
43	1321904	932464
44	1264992	915728
45	1235360	902848
46	1194800	882592
47	1169840	873520
48	1222592	936448
49	1138832	859168
50	1127648	861360
51	1152768	877760
52	1127696	868288
53	1110064	845472
54	1078880	828464
55	1091600	839200
56	1039648	802848
57	989872	763728
58	971792	747696
59	935584	730784
60	881936	681216
61	853552	652832
62	818576	608944
63	778400	580128
64	1466688	1094272
66	1347168	986272
68	1258992	889456
70	1215648	825968
72	1156944	788640
74	1123008	766288
76	1079360	726560
78	1060368	728896
80	1034352	722800
82	1005904	699312
84	948752	652464
86	912720	632192
88	875536	610160
90	849664	592592
92	815744	576000
94	751808	530272
96	721920	509088
98	685808	480352
100	673376	477488
102	670336	473920
104	644496	444384
106	636352	441264
108	628400	439056
110	623840	435328
112	623584	438848
114	625200	446544
116	621408	451920
118	632096	462000
120	617872	449744
122	589824	424320
124	551744	398464
126	523312	379680
128	982160	722240
132	923936	695856
136	893888	679696
140	886288	689424
144	887904	702144
148	890320	682544
152	870368	660736
156	828816	621472
160	779984	588448
164	791776	597600
168	771584	591456
172	750512	572992
176	734512	557824
180	721008	543168
184	702848	536672
188	674640	524176
192	633856	496048
196	603744	465984
200	572048	444944
204	576288	460896
208	570992	467264
212	571488	466144
216	567248	463328
220	545056	436896
224	521328	407408
228	498976	385824
232	459952	346544
236	432416	328528
240	419984	319776
244	415312	316240
248	408208	313680
252	404352	316576
256	811424	623040
264	852432	616032
272	833200	589968
280	773552	551344
288	712928	510528
296	687600	496688
304	654752	468496
312	650880	463712
320	630528	455648
328	610224	445200
336	612848	446224
344	591008	433168
352	561200	412528
360	545760	401072
368	543520	395248
376	543824	393088
384	530160	382672
392	500960	361488
400	479168	347648
408	460768	344992
416	445200	334048
424	435728	325840
432	419296	312288
440	410752	299328
448	401440	294864
456	395792	293248
464	384560	284384
472	388704	293584
480	381184	285968
488	393856	290512
496	401600	293648
504	398080	289456
512	808304	587616
528	794416	564160
544	769280	524176
560	697152	482576
576	625088	431104
592	590960	421152
608	546896	386208
624	523888	371168
640	489088	353648
656	466176	343616
672	468976	339392
688	453776	329296
704	423296	307616
720	418848	308640
736	406464	290976
752	425072	296384
768	421808	288432
784	399968	277408
800	406608	283936
816	391264	270080
832	378336	268528
848	368368	255328
864	349168	241280
880	340832	234736
896	343424	230544
912	334864	232304
928	321984	217280
944	309840	210016
960	292096	197152
976	292992	201200
992	283680	193888
1008	286624	196912
1024	555440	384240
1056	532944	353872
1088	514496	345120
1120	524208	353840
1152	501904	337216
1184	477408	313440
1216	450528	295216
1248	429872	280016
1280	425856	277440
1312	423200	280304
1344	389936	260480
1376	374336	246560
1408	356256	224688
1440	345968	218592
1472	333216	213936
1504	301168	192240
1536	289056	181248
1568	291920	184704
1600	274448	174496
1632	263120	161632
1664	273248	170032
1696	261632	156064
1728	249360	153920
1760	250544	153488
1792	231616	143152
1824	218688	129296
1856	213744	130016
1888	211824	128560
1920	197616	117472
1952	197120	117680
1984	186752	108736
2016	176976	100112
2048	357920	199280
2112	338064	184944
2176	347424	201744
2240	339984	197056
2304	309568	170208
2368	293552	165584
2432	282192	154480
2496	271008	144496
2560	250480	136432
2624	253136	135760
2688	233824	121376
2752	223440	116560
2816	213488	113904
2880	213584	104016
2944	197392	94688
3008	186800	93248
3072	186048	93088
3136	184112	91360
3200	182560	91680
3264	172224	92304
3328	168176	85520
3392	150928	77312
3456	133152	65712
3520	135264	68096
3584	129600	65616
3648	135584	71296
3712	125168	66720
3776	121328	60992
3840	119680	61456
3904	115616	59664
3968	125072	68352
4032	120560	58176
4096	230016	115184
4224	200096	99824
4352	184928	87664
4480	177440	86304
4608	177344	85392
4736	162672	77920
4864	158880	68624
4992	168416	70816
5120	148480	70352
5248	141664	71696
5376	131360	65648
5504	138096	67616
5632	134592	67184
5760	126688	60784
5888	129248	66608
6016	122304	61760
6144	121904	60288
6272	113520	56720
6400	113248	56608
6528	117392	62192
6656	106912	53232
6784	107584	56352
6912	110208	59904
7040	101312	53552
7168	105008	54928
7296	101040	51984
7424	98624	51216
7552	97088	49632
7680	93504	49872
7808	93424	46048
7936	93808	45968
8064	92176	48176
8192	172144	90512
8448	168672	91824
8704	153152	83808
8960	142800	74608
9216	130144	66640
9472	126192	65840
9728	115504	57680
9984	108800	56000
10240	100624	51696
10496	95888	49680
10752	90368	48032
11008	87984	45472
11264	83584	45120
11520	82400	41680
11776	83312	43280
12032	74400	38928
12288	72992	36128
12544	71664	36704
12800	70592	36192
13056	68864	35440
13312	72656	37104
13568	74048	39200
13824	65520	31072
14080	63568	31008
14336	68672	32880
14592	68976	29664
14848	62752	24880
15104	57072	26928
15360	53792	26064
15616	50976	25376
15872	51280	24368
16128	54400	26272
16384	98688	49696
16896	97120	49632
17408	103056	48560
17920	96832	39424
18432	86048	34800
18944	79808	38544
19456	74288	36704
19968	67168	35008
20480	69952	36608
20992	64960	33344
21504	60992	30976
22016	59792	27824
22528	63136	31728
23040	63152	34496
23552	63200	36304
24064	59472	32320
24576	54016	27872
25088	53872	26768
25600	53296	25984
26112	47440	24208
26624	50912	26192
27136	51680	26928
27648	52320	28784
28160	56512	31808
28672	48912	26288
29184	45680	23984
29696	43888	21408
30208	41088	20704
30720	38832	16976
31232	38352	17376
31744	39392	17776
32256	39920	19792
32768	70304	33552
33792	68288	34576
34816	74592	38480
35840	74400	36352
36864	59360	27200
37888	60368	28320
38912	59104	28256
39936	55536	26528
40960	53920	25728
41984	54576	25776
43008	51456	22880
44032	49168	21920
45056	51168	24048
46080	48672	22912
47104	47648	21712
48128	47440	21136
49152	44144	20128
50176	46080	21344
51200	44096	20176
52224	44800	20384
53248	44336	19248
54272	42752	18944
55296	37616	15632
56320	40432	18688
57344	40288	18464
58368	37008	16288
59392	37104	16848
60416	36704	16640
61440	33920	14608
62464	33664	14208
63488	35360	14704
64512	34576	14560
65536	64656	27120
67584	66016	29008
69632	68352	28352
71680	66560	30736
73728	61664	26288
75776	62448	27424
77824	58944	24624
79872	58496	26224
81920	62032	27504
83968	54144	23008
86016	56736	24560
88064	58384	24736
90112	56224	25312
92160	49888	22976
94208	46272	19552
96256	50496	23072
98304	44880	18736
100352	42992	18848
102400	40080	17328
104448	38672	16992
106496	38832	17696
108544	34416	14896
110592	34528	14032
112640	36208	15472
114688	33632	15472
116736	32832	15504
118784	30464	13920
120832	30784	13392
122880	28240	11168
124928	31568	14112
126976	30048	13392
129024	27744	11520
131072	56336	23920
135168	54880	24720
139264	51600	22896
143360	44896	18960
147456	47664	20224
151552	45744	20000
155648	47744	21088
159744	42112	18304
163840	44096	22032
167936	40112	19680
172032	37552	16192
176128	37328	16768
180224	32656	14864
184320	28512	11968
188416	33488	17248
192512	25024	10016
196608	29744	15472
200704	28064	14480
204800	28848	14752
208896	25920	14352
212992	23360	12032
217088	22816	12624
221184	22528	11600
225280	20176	10336
229376	23072	13008
233472	20512	12176
237568	15856	8016
241664	18672	11280
245760	21200	13104
249856	17264	10592
253952	19568	12368
258048	16464	9328
262144	31376	18336
270336	34176	20928
278528	39072	25520
286720	35760	23664
294912	33408	22160
303104	35840	23376
311296	35248	25040
319488	25872	15856
327680	22880	14832
335872	22192	14256
344064	23392	15936
352256	20688	13376
360448	23248	16176
368640	26352	19552
376832	21328	15040
385024	18048	11968
393216	20752	14736
401408	22704	17056
409600	23552	18096
417792	15680	11808
425984	14864	9424
434176	13520	8608
442368	13360	8688
450560	14096	9824
458752	16096	11328
466944	13024	9136
475136	13152	9232
483328	12288	8320
491520	13056	9408
499712	9824	6336
507904	7600	4288
516096	8832	6064
524288	19696	13392
540672	18768	13200
557056	23856	16304
573440	19648	13552
589824	17648	11136
606208	16352	11744
622592	14912	11408
638976	14112	9280
655360	12128	8288
671744	15312	10720
688128	16528	12352
704512	12736	8704
720896	14592	8800
737280	15440	9840
753664	13424	9664
770048	12688	8992
786432	6416	3808
802816	12784	8608
819200	8608	5184
835584	9568	6464
851968	9360	6304
868352	9552	7120
884736	9440	5968
901120	7888	5072
917504	10368	6400
933888	10672	7760
950272	6976	4176
966656	6272	3952
983040	8672	6000
999424	6384	3984
1015808	7344	4944
1032192	6112	4416
1048576	12992	9248
1081344	9488	5568
1114112	11008	6512
1146880	11088	7904
1179648	7904	5568
1212416	7584	5440
1245184	13856	9056
1277952	9904	7232
1310720	7328	4704
1343488	16368	12144
1376256	14064	10176
1409024	12832	8576
1441792	9504	6240
1474560	10976	7568
1507328	12800	7792
1540096	11232	7104
1572864	7776	5264
1605632	11984	7680
1638400	5760	3264
1671168	7200	5344
1703936	10240	5760
1736704	9472	5712
1769472	6896	4944
1802240	5248	2960
1835008	11456	6768
1867776	7088	5616
1900544	7536	5408
1933312	3744	2976
1966080	5136	3024
1998848	5840	3696
2031616	3552	2608
2064384	4816	3488
2097152	9296	7008
2162688	11616	7856
2228224	6832	5008
2293760	8688	6848
2359296	9616	5744
2424832	8160	6000
2490368	7488	4896
2555904	10192	6128
2621440	6944	4352
2686976	8944	6016
2752512	6064	4768
2818048	4400	3392
2883584	3648	2912
2949120	5232	3440
3014656	6864	5312
3080192	6448	3664
3145728	3296	2592
3211264	3936	2416
3276800	5328	3664
3342336	3280	2320
3407872	4592	3808
3473408	5392	4176
3538944	3744	2608
3604480	3696	2640
3670016	3888	2704
3735552	2688	1632
3801088	2864	1840
3866624	1392	752
3932160	2032	1152
3997696	2992	2208
4063232	4432	2880
4128768	2672	1968
4194304	10928	7184
4325376	6816	5024
4456448	5040	3184
4587520	2848	2016
4718592	6848	4240
4849664	7664	4816
4980736	6448	4320
5111808	8560	6224
5242880	5456	3440
5373952	7488	4928
5505024	6352	4160
5636096	5904	4304
5767168	6192	3360
5898240	4752	3056
6029312	1968	1120
6160384	3520	2528
6291456	3360	2224
6422528	4176	2928
6553600	2176	1536
6684672	6096	3600
6815744	3936	2736
6946816	3008	1840
7077888	3344	1744
7208960	1584	960
7340032	2336	1520
7471104	2272	1184
7602176	672	400
7733248	1584	960
7864320	1744	1200
7995392	1072	736
8126464	1792	1552
8257536	1360	880
8388608	3424	2288
8650752	2816	2096
8912896	3424	2720
9175040	2864	2288
9437184	784	592
9699328	3056	2384
9961472	2512	1824
10223616	1472	1136
10485760	5104	4064
10747904	1424	944
11010048	1280	880
11272192	752	592
11534336	1952	1712
11796480	816	672
12058624	480	384
12320768	992	672
12582912	2352	1488
12845056	1184	656
13107200	3536	2352
13369344	2016	1952
13631488	1520	1328
13893632	1232	880
14155776	1392	752
14417920	640	560
14680064	1072	736
14942208	1232	960
15204352	640	544
15466496	368	272
15728640	3344	2192
15990784	992	656
16252928	1728	1152
16515072	2640	1968
16777216	2592	1984
17301504	3520	2832
17825792	2096	1312
18350080	1664	1264
18874368	2400	1648
19398656	1920	1744
19922944	2784	2400
20447232	3248	2288
20971520	2704	2416
21495808	1472	1008
22020096	3872	2688
22544384	3216	2128
23068672	1072	848
23592960	1488	1088
24117248	2816	1728
24641536	1264	896
25165824	704	608
25690112	704	496
26214400	624	528
26738688	3104	1776
27262976	1664	912
27787264	752	704
28311552	1216	912
28835840	1312	1024
29360128	1712	1440
29884416	688	592
30408704	2288	1936
30932992	464	448
31457280	592	576
31981568	576	544
32505856	496	416
33030144	720	688
33554432	2384	1792
34603008	1648	1616
35651584	1024	1008
36700160	2224	2192
37748736	1408	1280
38797312	2032	1424
39845888	1920	1280
40894464	1232	992
41943040	2720	1968
42991616	2368	1872
44040192	976	864
45088768	800	736
46137344	1648	1328
47185920	1200	1136
48234496	1136	1072
49283072	1552	1072
50331648	672	672
51380224	640	608
52428800	1056	752
53477376	1824	1232
54525952	1344	1072
55574528	1088	1072
56623104	736	736
57671680	752	672
58720256	5952	3488
59768832	592	592
60817408	624	592
61865984	720	688
62914560	1584	1328
63963136	528	512
65011712	576	576
66060288	496	496
67108864	928	928
69206016	1184	1136
71303168	1360	1312
73400320	1376	1360
75497472	1280	1200
77594624	1360	1312
79691776	768	720
81788928	864	832
83886080	880	880
85983232	1088	1008
88080384	848	816
90177536	960	960
92274688	768	768
94371840	1808	1488
96468992	784	784
98566144	768	736
100663296	2048	2032
102760448	896	848
104857600	1472	1120
106954752	848	832
109051904	800	784
111149056	880	880
113246208	768	768
115343360	800	800
117440512	976	960
119537664	3600	3600
121634816	720	720
123731968	688	688
125829120	688	688
127926272	864	832
130023424	816	816
132120576	656	656
134217728	1168	1168
138412032	768	768
142606336	864	864
146800640	848	848
150994944	1024	1024
155189248	912	912
159383552	960	960
163577856	1040	1024
167772160	896	896
171966464	688	672
176160768	1424	1056
180355072	768	768
184549376	768	752
188743680	720	720
192937984	688	688
197132288	944	944
201326592	752	736
205520896	704	688
209715200	896	896
213909504	496	496
218103808	800	800
222298112	512	512
226492416	352	352
230686720	592	592
234881024	608	608
239075328	576	576
243269632	432	432
247463936	592	592
251658240	640	640
255852544	400	400
260046848	560	560
264241152	528	528
268435456	944	944
276824064	1168	1168
285212672	1248	1232
293601280	944	944
301989888	944	944
310378496	880	880
318767104	928	928
327155712	672	672
335544320	720	720
343932928	576	576
352321536	800	800
360710144	512	512
369098752	608	592
377487360	608	608
385875968	480	480
394264576	448	448
402653184	480	480
411041792	336	336
419430400	368	368
427819008	336	336
436207616	320	320
444596224	288	288
452984832	368	368
461373440	288	288
469762048	224	224
478150656	160	160
486539264	240	240
494927872	128	128
503316480	176	176
511705088	128	128
520093696	48	48
528482304	48	48
536870912	144	144
553648128	16	16
570425344	0	0
587202560	0	0
603979776	0	0
620756992	0	0
637534208	0	0
654311424	0	0
671088640	0	0
687865856	0	0
704643072	0	0
721420288	0	0
738197504	0	0
754974720	0	0
771751936	0	0
788529152	0	0
805306368	0	0
822083584	0	0
838860800	0	0
855638016	0	0
872415232	0	0
889192448	0	0
905969664	0	0
922746880	0	0
939524096	0	0
956301312	0	0
973078528	0	0
989855744	0	0
1006632960	0	0
1023410176	0	0
1040187392	0	0
1056964608	0	0
1073741824	0	0
1107296256	0	0
1140850688	0	0
1174405120	0	0
1207959552	0	0
1241513984	0	0
1275068416	0	0
1308622848	0	0
1342177280	0	0
1375731712	0	0
1409286144	0	0
1442840576	0	0
1476395008	0	0
1509949440	0	0
1543503872	0	0
1577058304	0	0
1610612736	0	0
1644167168	0	0
1677721600	0	0
1711276032	0	0
1744830464	0	0
1778384896	0	0
1811939328	0	0
1845493760	0	0
1879048192	0	0
1912602624	0	0
1946157056	0	0
1979711488	0	0
2013265920	0	0
2046820352	0	0
2080374784	0	0
2113929216	0	0
2147483648	0	0
2214592512	0	0
2281701376	0	0
2348810240	0	0
2415919104	0	0
2483027968	0	0
2550136832	0	0
2617245696	0	0
2684354560	0	0
2751463424	0	0
2818572288	0	0
2885681152	0	0
2952790016	0	0
3019898880	0	0
3087007744	0	0
3154116608	0	0
3221225472	0	0
3288334336	0	0
3355443200	0	0
3422552064	0	0
3489660928	0	0
3556769792	0	0
3623878656	0	0
3690987520	0	0
3758096384	0	0
3825205248	0	0
3892314112	0	0
3959422976	0	0
4026531840	0	0
4093640704	0	0
4160749568	0	0
4227858432	0	0
~~~~~~~~~~Reuse Distance Profiler output end~~~~~~~~~~

DRAM Statistics
 CHANNEL 0
 RQ ROW_BUFFER_HIT:       7288  ROW_BUFFER_MISS:     207504
 DBUS AVG_CONGESTED_CYCLE:    3.83354
 WQ ROW_BUFFER_HIT:      39559  ROW_BUFFER_MISS:     109850  FULL:          0


CPU 0 Branch Prediction Accuracy: 85.9929% MPKI: 25.4096 Average ROB Occupancy at Mispredict: 13.828
Branch type MPKI
BRANCH_DIRECT_JUMP: 0.000346
BRANCH_INDIRECT: 5.86667e-05
BRANCH_CONDITIONAL: 25.3946
BRANCH_DIRECT_CALL: 0.000592
BRANCH_INDIRECT_CALL: 0.0131307
BRANCH_RETURN: 0.000869333

