
*** ChampSim Multicore Out-of-Order Simulator ***

Warmup Instructions: 500000000
Simulation Instructions: 1500000000
Number of CPUs: 1
Off-chip DRAM Size: 4 GiB Channels: 1 Width: 64-bit Data Rate: 3200 MT/s

VirtualMemory physical capacity: 8588881920 num_ppages: 2096895
VirtualMemory page size: 4096 log2_page_size: 12

CPU 0 runs traces/445.gobmk-30B.champsimtrace.xz
CPU 0 Bimodal branch predictor
Basic BTB sets: 1024 ways: 8 indirect buffer size: 4096 RAS size: 64
Initializing LRU.
Initializing LRU.
Initializing LRU.
Initializing LRU.
Initializing rdLRU.
Initializing LRU.
Initializing LRU.
Heartbeat CPU 0 instructions: 10000002 cycles: 2535548 heartbeat IPC: 3.94392 cumulative IPC: 3.94392 (Simulation time: 0 hr 0 min 33 sec) 
Heartbeat CPU 0 instructions: 20000000 cycles: 5071254 heartbeat IPC: 3.94367 cumulative IPC: 3.9438 (Simulation time: 0 hr 1 min 6 sec) 
Heartbeat CPU 0 instructions: 30000000 cycles: 7604301 heartbeat IPC: 3.94781 cumulative IPC: 3.94514 (Simulation time: 0 hr 1 min 38 sec) 
Heartbeat CPU 0 instructions: 40000001 cycles: 10143513 heartbeat IPC: 3.93823 cumulative IPC: 3.94341 (Simulation time: 0 hr 2 min 10 sec) 
Heartbeat CPU 0 instructions: 50000001 cycles: 12658320 heartbeat IPC: 3.97645 cumulative IPC: 3.94997 (Simulation time: 0 hr 2 min 43 sec) 
Heartbeat CPU 0 instructions: 60000003 cycles: 15187238 heartbeat IPC: 3.95426 cumulative IPC: 3.95069 (Simulation time: 0 hr 3 min 16 sec) 
Heartbeat CPU 0 instructions: 70000003 cycles: 17698854 heartbeat IPC: 3.9815 cumulative IPC: 3.95506 (Simulation time: 0 hr 3 min 48 sec) 
Heartbeat CPU 0 instructions: 80000001 cycles: 20207440 heartbeat IPC: 3.98631 cumulative IPC: 3.95894 (Simulation time: 0 hr 4 min 28 sec) 
Heartbeat CPU 0 instructions: 90000001 cycles: 22719023 heartbeat IPC: 3.98155 cumulative IPC: 3.96144 (Simulation time: 0 hr 5 min 4 sec) 
Heartbeat CPU 0 instructions: 100000000 cycles: 25229139 heartbeat IPC: 3.98388 cumulative IPC: 3.96367 (Simulation time: 0 hr 5 min 45 sec) 
Heartbeat CPU 0 instructions: 110000003 cycles: 27739903 heartbeat IPC: 3.98285 cumulative IPC: 3.96541 (Simulation time: 0 hr 6 min 18 sec) 
Heartbeat CPU 0 instructions: 120000004 cycles: 30252271 heartbeat IPC: 3.98031 cumulative IPC: 3.96664 (Simulation time: 0 hr 6 min 52 sec) 
Heartbeat CPU 0 instructions: 130000003 cycles: 32765696 heartbeat IPC: 3.97863 cumulative IPC: 3.96756 (Simulation time: 0 hr 7 min 25 sec) 
Heartbeat CPU 0 instructions: 140000002 cycles: 35280973 heartbeat IPC: 3.9757 cumulative IPC: 3.96814 (Simulation time: 0 hr 7 min 59 sec) 
Heartbeat CPU 0 instructions: 150000002 cycles: 38720116 heartbeat IPC: 2.9077 cumulative IPC: 3.87396 (Simulation time: 0 hr 8 min 47 sec) 
Heartbeat CPU 0 instructions: 160000003 cycles: 42038534 heartbeat IPC: 3.01348 cumulative IPC: 3.80603 (Simulation time: 0 hr 9 min 31 sec) 
Heartbeat CPU 0 instructions: 170000002 cycles: 44867811 heartbeat IPC: 3.53447 cumulative IPC: 3.78891 (Simulation time: 0 hr 10 min 12 sec) 
Heartbeat CPU 0 instructions: 180000003 cycles: 47391639 heartbeat IPC: 3.96224 cumulative IPC: 3.79814 (Simulation time: 0 hr 10 min 51 sec) 
Heartbeat CPU 0 instructions: 190000001 cycles: 49952263 heartbeat IPC: 3.9053 cumulative IPC: 3.80363 (Simulation time: 0 hr 11 min 34 sec) 
Heartbeat CPU 0 instructions: 200000003 cycles: 52493143 heartbeat IPC: 3.93565 cumulative IPC: 3.81002 (Simulation time: 0 hr 12 min 23 sec) 
Heartbeat CPU 0 instructions: 210000002 cycles: 55025446 heartbeat IPC: 3.94897 cumulative IPC: 3.81642 (Simulation time: 0 hr 13 min 5 sec) 
Heartbeat CPU 0 instructions: 220000000 cycles: 57540320 heartbeat IPC: 3.97634 cumulative IPC: 3.82341 (Simulation time: 0 hr 13 min 46 sec) 
Heartbeat CPU 0 instructions: 230000000 cycles: 60058227 heartbeat IPC: 3.97155 cumulative IPC: 3.82962 (Simulation time: 0 hr 14 min 20 sec) 
Heartbeat CPU 0 instructions: 240000002 cycles: 62604677 heartbeat IPC: 3.92704 cumulative IPC: 3.83358 (Simulation time: 0 hr 14 min 53 sec) 
Heartbeat CPU 0 instructions: 250000001 cycles: 65144053 heartbeat IPC: 3.93797 cumulative IPC: 3.83765 (Simulation time: 0 hr 15 min 28 sec) 
Heartbeat CPU 0 instructions: 260000002 cycles: 67656034 heartbeat IPC: 3.98092 cumulative IPC: 3.84297 (Simulation time: 0 hr 16 min 6 sec) 
Heartbeat CPU 0 instructions: 270000001 cycles: 70181801 heartbeat IPC: 3.95919 cumulative IPC: 3.84715 (Simulation time: 0 hr 16 min 43 sec) 
Heartbeat CPU 0 instructions: 280000000 cycles: 72712479 heartbeat IPC: 3.95151 cumulative IPC: 3.85078 (Simulation time: 0 hr 17 min 21 sec) 
Heartbeat CPU 0 instructions: 290000003 cycles: 75258266 heartbeat IPC: 3.92806 cumulative IPC: 3.8534 (Simulation time: 0 hr 17 min 56 sec) 
Heartbeat CPU 0 instructions: 300000001 cycles: 77785188 heartbeat IPC: 3.95738 cumulative IPC: 3.85678 (Simulation time: 0 hr 18 min 31 sec) 
Heartbeat CPU 0 instructions: 310000001 cycles: 80321848 heartbeat IPC: 3.94219 cumulative IPC: 3.85947 (Simulation time: 0 hr 19 min 7 sec) 
Heartbeat CPU 0 instructions: 320000000 cycles: 82852890 heartbeat IPC: 3.95094 cumulative IPC: 3.86227 (Simulation time: 0 hr 19 min 51 sec) 
Heartbeat CPU 0 instructions: 330000002 cycles: 85421666 heartbeat IPC: 3.89291 cumulative IPC: 3.86319 (Simulation time: 0 hr 20 min 48 sec) 
Heartbeat CPU 0 instructions: 340000000 cycles: 87977835 heartbeat IPC: 3.9121 cumulative IPC: 3.86461 (Simulation time: 0 hr 21 min 24 sec) 
Heartbeat CPU 0 instructions: 350000000 cycles: 90539668 heartbeat IPC: 3.90346 cumulative IPC: 3.86571 (Simulation time: 0 hr 22 min 0 sec) 
Heartbeat CPU 0 instructions: 360000002 cycles: 93066907 heartbeat IPC: 3.95689 cumulative IPC: 3.86818 (Simulation time: 0 hr 22 min 37 sec) 
Heartbeat CPU 0 instructions: 370000002 cycles: 95624217 heartbeat IPC: 3.91036 cumulative IPC: 3.86931 (Simulation time: 0 hr 23 min 12 sec) 
Heartbeat CPU 0 instructions: 380000001 cycles: 98144147 heartbeat IPC: 3.96836 cumulative IPC: 3.87186 (Simulation time: 0 hr 23 min 52 sec) 
Heartbeat CPU 0 instructions: 390000003 cycles: 100668656 heartbeat IPC: 3.96117 cumulative IPC: 3.8741 (Simulation time: 0 hr 24 min 31 sec) 
Heartbeat CPU 0 instructions: 400000000 cycles: 103215070 heartbeat IPC: 3.92709 cumulative IPC: 3.8754 (Simulation time: 0 hr 25 min 9 sec) 
Heartbeat CPU 0 instructions: 410000000 cycles: 105755839 heartbeat IPC: 3.93582 cumulative IPC: 3.87685 (Simulation time: 0 hr 25 min 45 sec) 
Heartbeat CPU 0 instructions: 420000000 cycles: 108295882 heartbeat IPC: 3.93694 cumulative IPC: 3.87826 (Simulation time: 0 hr 26 min 19 sec) 
Heartbeat CPU 0 instructions: 430000002 cycles: 110837695 heartbeat IPC: 3.9342 cumulative IPC: 3.87955 (Simulation time: 0 hr 26 min 53 sec) 
Heartbeat CPU 0 instructions: 440000002 cycles: 113373859 heartbeat IPC: 3.94296 cumulative IPC: 3.88097 (Simulation time: 0 hr 27 min 29 sec) 
Heartbeat CPU 0 instructions: 450000002 cycles: 115904401 heartbeat IPC: 3.95172 cumulative IPC: 3.88251 (Simulation time: 0 hr 28 min 7 sec) 
Heartbeat CPU 0 instructions: 460000000 cycles: 118427314 heartbeat IPC: 3.96367 cumulative IPC: 3.88424 (Simulation time: 0 hr 28 min 41 sec) 
Heartbeat CPU 0 instructions: 470000001 cycles: 120952062 heartbeat IPC: 3.96079 cumulative IPC: 3.88584 (Simulation time: 0 hr 29 min 15 sec) 
Heartbeat CPU 0 instructions: 480000002 cycles: 123475954 heartbeat IPC: 3.96214 cumulative IPC: 3.8874 (Simulation time: 0 hr 29 min 50 sec) 
Heartbeat CPU 0 instructions: 490000003 cycles: 125999792 heartbeat IPC: 3.96222 cumulative IPC: 3.8889 (Simulation time: 0 hr 30 min 29 sec) 
Heartbeat CPU 0 instructions: 500000003 cycles: 128518024 heartbeat IPC: 3.97104 cumulative IPC: 3.8905 (Simulation time: 0 hr 31 min 9 sec) 

Warmup complete CPU 0 instructions: 500000003 cycles: 128518024 (Simulation time: 0 hr 31 min 9 sec) 

Heartbeat CPU 0 instructions: 510000000 cycles: 140878202 heartbeat IPC: 0.80905 cumulative IPC: 0.80905 (Simulation time: 0 hr 31 min 50 sec) 
Heartbeat CPU 0 instructions: 520000000 cycles: 152983485 heartbeat IPC: 0.826086 cumulative IPC: 0.817479 (Simulation time: 0 hr 32 min 33 sec) 
Heartbeat CPU 0 instructions: 530000000 cycles: 165065981 heartbeat IPC: 0.827644 cumulative IPC: 0.820839 (Simulation time: 0 hr 33 min 18 sec) 
Heartbeat CPU 0 instructions: 540000000 cycles: 177103729 heartbeat IPC: 0.83072 cumulative IPC: 0.823287 (Simulation time: 0 hr 34 min 6 sec) 
Heartbeat CPU 0 instructions: 550000003 cycles: 189363993 heartbeat IPC: 0.815643 cumulative IPC: 0.821747 (Simulation time: 0 hr 34 min 48 sec) 
Heartbeat CPU 0 instructions: 560000001 cycles: 201527431 heartbeat IPC: 0.822136 cumulative IPC: 0.821812 (Simulation time: 0 hr 35 min 28 sec) 
Heartbeat CPU 0 instructions: 570000004 cycles: 213800377 heartbeat IPC: 0.814801 cumulative IPC: 0.820803 (Simulation time: 0 hr 36 min 7 sec) 
Heartbeat CPU 0 instructions: 580000004 cycles: 225859903 heartbeat IPC: 0.82922 cumulative IPC: 0.821846 (Simulation time: 0 hr 36 min 53 sec) 
Heartbeat CPU 0 instructions: 590000003 cycles: 238216533 heartbeat IPC: 0.809282 cumulative IPC: 0.82043 (Simulation time: 0 hr 37 min 37 sec) 
Heartbeat CPU 0 instructions: 600000003 cycles: 250403790 heartbeat IPC: 0.820529 cumulative IPC: 0.82044 (Simulation time: 0 hr 38 min 19 sec) 
Heartbeat CPU 0 instructions: 610000004 cycles: 262396609 heartbeat IPC: 0.833832 cumulative IPC: 0.82164 (Simulation time: 0 hr 39 min 14 sec) 
Heartbeat CPU 0 instructions: 620000000 cycles: 274895237 heartbeat IPC: 0.800088 cumulative IPC: 0.8198 (Simulation time: 0 hr 40 min 1 sec) 
Heartbeat CPU 0 instructions: 630000002 cycles: 287058602 heartbeat IPC: 0.822141 cumulative IPC: 0.819979 (Simulation time: 0 hr 40 min 42 sec) 
Heartbeat CPU 0 instructions: 640000001 cycles: 299288304 heartbeat IPC: 0.817681 cumulative IPC: 0.819815 (Simulation time: 0 hr 41 min 22 sec) 
Heartbeat CPU 0 instructions: 650000001 cycles: 311555053 heartbeat IPC: 0.815212 cumulative IPC: 0.819506 (Simulation time: 0 hr 42 min 1 sec) 
Heartbeat CPU 0 instructions: 660000003 cycles: 323720026 heartbeat IPC: 0.822032 cumulative IPC: 0.819664 (Simulation time: 0 hr 42 min 40 sec) 
Heartbeat CPU 0 instructions: 670000002 cycles: 336044412 heartbeat IPC: 0.811399 cumulative IPC: 0.819173 (Simulation time: 0 hr 43 min 21 sec) 
Heartbeat CPU 0 instructions: 680000002 cycles: 348529599 heartbeat IPC: 0.800949 cumulative IPC: 0.818139 (Simulation time: 0 hr 44 min 2 sec) 
Heartbeat CPU 0 instructions: 690000000 cycles: 360897700 heartbeat IPC: 0.808531 cumulative IPC: 0.817627 (Simulation time: 0 hr 44 min 43 sec) 
Heartbeat CPU 0 instructions: 700000000 cycles: 373312897 heartbeat IPC: 0.805464 cumulative IPC: 0.817011 (Simulation time: 0 hr 45 min 26 sec) 
Heartbeat CPU 0 instructions: 710000001 cycles: 385723807 heartbeat IPC: 0.805743 cumulative IPC: 0.816467 (Simulation time: 0 hr 46 min 5 sec) 
Heartbeat CPU 0 instructions: 720000001 cycles: 398340260 heartbeat IPC: 0.792616 cumulative IPC: 0.815352 (Simulation time: 0 hr 46 min 44 sec) 
Heartbeat CPU 0 instructions: 730000001 cycles: 410799842 heartbeat IPC: 0.802595 cumulative IPC: 0.814789 (Simulation time: 0 hr 47 min 25 sec) 
Heartbeat CPU 0 instructions: 740000000 cycles: 423245019 heartbeat IPC: 0.803524 cumulative IPC: 0.814313 (Simulation time: 0 hr 48 min 3 sec) 
Heartbeat CPU 0 instructions: 750000000 cycles: 435503573 heartbeat IPC: 0.815757 cumulative IPC: 0.814371 (Simulation time: 0 hr 48 min 42 sec) 
Heartbeat CPU 0 instructions: 760000003 cycles: 448120250 heartbeat IPC: 0.792602 cumulative IPC: 0.813511 (Simulation time: 0 hr 49 min 20 sec) 
Heartbeat CPU 0 instructions: 770000000 cycles: 460586161 heartbeat IPC: 0.802187 cumulative IPC: 0.813086 (Simulation time: 0 hr 49 min 59 sec) 
Heartbeat CPU 0 instructions: 780000000 cycles: 472986879 heartbeat IPC: 0.806405 cumulative IPC: 0.812846 (Simulation time: 0 hr 50 min 38 sec) 
Heartbeat CPU 0 instructions: 790000003 cycles: 485074861 heartbeat IPC: 0.827268 cumulative IPC: 0.813335 (Simulation time: 0 hr 51 min 19 sec) 
Heartbeat CPU 0 instructions: 800000000 cycles: 497287375 heartbeat IPC: 0.818832 cumulative IPC: 0.813517 (Simulation time: 0 hr 51 min 57 sec) 
Heartbeat CPU 0 instructions: 810000000 cycles: 508887990 heartbeat IPC: 0.862023 cumulative IPC: 0.814996 (Simulation time: 0 hr 52 min 36 sec) 
Heartbeat CPU 0 instructions: 820000001 cycles: 520439892 heartbeat IPC: 0.865658 cumulative IPC: 0.816489 (Simulation time: 0 hr 53 min 14 sec) 
Heartbeat CPU 0 instructions: 830000003 cycles: 532229104 heartbeat IPC: 0.848233 cumulative IPC: 0.817416 (Simulation time: 0 hr 53 min 52 sec) 
Heartbeat CPU 0 instructions: 840000000 cycles: 543822580 heartbeat IPC: 0.862554 cumulative IPC: 0.818676 (Simulation time: 0 hr 54 min 30 sec) 
Heartbeat CPU 0 instructions: 850000001 cycles: 555054496 heartbeat IPC: 0.89032 cumulative IPC: 0.820563 (Simulation time: 0 hr 55 min 12 sec) 
Heartbeat CPU 0 instructions: 860000000 cycles: 567082815 heartbeat IPC: 0.831371 cumulative IPC: 0.820859 (Simulation time: 0 hr 56 min 14 sec) 
Heartbeat CPU 0 instructions: 870000000 cycles: 578855012 heartbeat IPC: 0.849459 cumulative IPC: 0.821607 (Simulation time: 0 hr 57 min 5 sec) 
Heartbeat CPU 0 instructions: 880000000 cycles: 590988813 heartbeat IPC: 0.824144 cumulative IPC: 0.821674 (Simulation time: 0 hr 57 min 44 sec) 
Heartbeat CPU 0 instructions: 890000000 cycles: 603459514 heartbeat IPC: 0.80188 cumulative IPC: 0.821154 (Simulation time: 0 hr 58 min 24 sec) 
Heartbeat CPU 0 instructions: 900000002 cycles: 615767482 heartbeat IPC: 0.812482 cumulative IPC: 0.820935 (Simulation time: 0 hr 59 min 2 sec) 
Heartbeat CPU 0 instructions: 910000001 cycles: 627447364 heartbeat IPC: 0.856173 cumulative IPC: 0.82176 (Simulation time: 0 hr 59 min 40 sec) 
Heartbeat CPU 0 instructions: 920000000 cycles: 639765541 heartbeat IPC: 0.811808 cumulative IPC: 0.82152 (Simulation time: 1 hr 0 min 19 sec) 
Heartbeat CPU 0 instructions: 930000000 cycles: 652027865 heartbeat IPC: 0.815506 cumulative IPC: 0.821379 (Simulation time: 1 hr 0 min 57 sec) 
Heartbeat CPU 0 instructions: 940000002 cycles: 664561260 heartbeat IPC: 0.797869 cumulative IPC: 0.820829 (Simulation time: 1 hr 1 min 36 sec) 
Heartbeat CPU 0 instructions: 950000002 cycles: 677059204 heartbeat IPC: 0.800132 cumulative IPC: 0.820358 (Simulation time: 1 hr 2 min 15 sec) 
Heartbeat CPU 0 instructions: 960000000 cycles: 689493156 heartbeat IPC: 0.804249 cumulative IPC: 0.820001 (Simulation time: 1 hr 2 min 54 sec) 
Heartbeat CPU 0 instructions: 970000001 cycles: 701875845 heartbeat IPC: 0.807579 cumulative IPC: 0.819732 (Simulation time: 1 hr 3 min 33 sec) 
Heartbeat CPU 0 instructions: 980000000 cycles: 714451133 heartbeat IPC: 0.79521 cumulative IPC: 0.819206 (Simulation time: 1 hr 4 min 13 sec) 
Heartbeat CPU 0 instructions: 990000002 cycles: 726842907 heartbeat IPC: 0.806987 cumulative IPC: 0.818953 (Simulation time: 1 hr 4 min 52 sec) 
Heartbeat CPU 0 instructions: 1000000000 cycles: 739308935 heartbeat IPC: 0.80218 cumulative IPC: 0.818611 (Simulation time: 1 hr 5 min 46 sec) 
Heartbeat CPU 0 instructions: 1010000003 cycles: 751826374 heartbeat IPC: 0.798886 cumulative IPC: 0.818215 (Simulation time: 1 hr 6 min 32 sec) 
Heartbeat CPU 0 instructions: 1020000001 cycles: 764728260 heartbeat IPC: 0.77508 cumulative IPC: 0.81734 (Simulation time: 1 hr 7 min 12 sec) 
Heartbeat CPU 0 instructions: 1030000000 cycles: 777252641 heartbeat IPC: 0.798443 cumulative IPC: 0.816975 (Simulation time: 1 hr 7 min 50 sec) 
Heartbeat CPU 0 instructions: 1040000000 cycles: 790015751 heartbeat IPC: 0.783508 cumulative IPC: 0.816329 (Simulation time: 1 hr 8 min 29 sec) 
Heartbeat CPU 0 instructions: 1050000003 cycles: 802681955 heartbeat IPC: 0.789503 cumulative IPC: 0.815825 (Simulation time: 1 hr 9 min 8 sec) 
Heartbeat CPU 0 instructions: 1060000000 cycles: 815148808 heartbeat IPC: 0.802127 cumulative IPC: 0.815577 (Simulation time: 1 hr 9 min 47 sec) 
Heartbeat CPU 0 instructions: 1070000000 cycles: 827604368 heartbeat IPC: 0.802854 cumulative IPC: 0.81535 (Simulation time: 1 hr 10 min 26 sec) 
Heartbeat CPU 0 instructions: 1080000000 cycles: 840189714 heartbeat IPC: 0.794575 cumulative IPC: 0.814983 (Simulation time: 1 hr 11 min 5 sec) 
Heartbeat CPU 0 instructions: 1090000000 cycles: 852786814 heartbeat IPC: 0.793833 cumulative IPC: 0.814615 (Simulation time: 1 hr 11 min 44 sec) 
Heartbeat CPU 0 instructions: 1100000004 cycles: 865436683 heartbeat IPC: 0.790522 cumulative IPC: 0.814201 (Simulation time: 1 hr 12 min 23 sec) 
Heartbeat CPU 0 instructions: 1110000000 cycles: 877764179 heartbeat IPC: 0.811194 cumulative IPC: 0.814152 (Simulation time: 1 hr 13 min 1 sec) 
Heartbeat CPU 0 instructions: 1120000000 cycles: 890239192 heartbeat IPC: 0.801602 cumulative IPC: 0.813946 (Simulation time: 1 hr 13 min 41 sec) 
Heartbeat CPU 0 instructions: 1130000004 cycles: 902656052 heartbeat IPC: 0.805357 cumulative IPC: 0.813808 (Simulation time: 1 hr 14 min 23 sec) 
Heartbeat CPU 0 instructions: 1140000001 cycles: 914936444 heartbeat IPC: 0.814306 cumulative IPC: 0.813816 (Simulation time: 1 hr 15 min 3 sec) 
Heartbeat CPU 0 instructions: 1150000001 cycles: 927250118 heartbeat IPC: 0.812105 cumulative IPC: 0.81379 (Simulation time: 1 hr 15 min 47 sec) 
Heartbeat CPU 0 instructions: 1160000000 cycles: 939629893 heartbeat IPC: 0.807769 cumulative IPC: 0.813698 (Simulation time: 1 hr 16 min 28 sec) 
Heartbeat CPU 0 instructions: 1170000002 cycles: 951896871 heartbeat IPC: 0.815197 cumulative IPC: 0.81372 (Simulation time: 1 hr 17 min 8 sec) 
Heartbeat CPU 0 instructions: 1180000001 cycles: 964262558 heartbeat IPC: 0.808689 cumulative IPC: 0.813646 (Simulation time: 1 hr 17 min 48 sec) 
Heartbeat CPU 0 instructions: 1190000002 cycles: 976676413 heartbeat IPC: 0.805552 cumulative IPC: 0.813527 (Simulation time: 1 hr 18 min 29 sec) 
Heartbeat CPU 0 instructions: 1200000000 cycles: 988904673 heartbeat IPC: 0.817778 cumulative IPC: 0.813588 (Simulation time: 1 hr 19 min 10 sec) 
Heartbeat CPU 0 instructions: 1210000001 cycles: 1001535369 heartbeat IPC: 0.791722 cumulative IPC: 0.813271 (Simulation time: 1 hr 19 min 52 sec) 
Heartbeat CPU 0 instructions: 1220000000 cycles: 1014069391 heartbeat IPC: 0.797828 cumulative IPC: 0.813053 (Simulation time: 1 hr 20 min 33 sec) 
Heartbeat CPU 0 instructions: 1230000001 cycles: 1026253991 heartbeat IPC: 0.820708 cumulative IPC: 0.813157 (Simulation time: 1 hr 21 min 13 sec) 
Heartbeat CPU 0 instructions: 1240000004 cycles: 1038629580 heartbeat IPC: 0.808043 cumulative IPC: 0.813087 (Simulation time: 1 hr 21 min 53 sec) 
Heartbeat CPU 0 instructions: 1250000001 cycles: 1051260375 heartbeat IPC: 0.791716 cumulative IPC: 0.812795 (Simulation time: 1 hr 22 min 52 sec) 
Heartbeat CPU 0 instructions: 1260000002 cycles: 1063589521 heartbeat IPC: 0.811086 cumulative IPC: 0.812772 (Simulation time: 1 hr 23 min 59 sec) 
Heartbeat CPU 0 instructions: 1270000000 cycles: 1076062984 heartbeat IPC: 0.801702 cumulative IPC: 0.812626 (Simulation time: 1 hr 24 min 49 sec) 
Heartbeat CPU 0 instructions: 1280000003 cycles: 1088440407 heartbeat IPC: 0.807923 cumulative IPC: 0.812566 (Simulation time: 1 hr 25 min 31 sec) 
Heartbeat CPU 0 instructions: 1290000002 cycles: 1100829664 heartbeat IPC: 0.807151 cumulative IPC: 0.812497 (Simulation time: 1 hr 26 min 14 sec) 
Heartbeat CPU 0 instructions: 1300000001 cycles: 1113031955 heartbeat IPC: 0.819518 cumulative IPC: 0.812584 (Simulation time: 1 hr 27 min 4 sec) 
Heartbeat CPU 0 instructions: 1310000000 cycles: 1124867078 heartbeat IPC: 0.844943 cumulative IPC: 0.812968 (Simulation time: 1 hr 27 min 47 sec) 
Heartbeat CPU 0 instructions: 1320000000 cycles: 1137265454 heartbeat IPC: 0.806557 cumulative IPC: 0.812889 (Simulation time: 1 hr 28 min 45 sec) 
Heartbeat CPU 0 instructions: 1330000001 cycles: 1149603181 heartbeat IPC: 0.810522 cumulative IPC: 0.812861 (Simulation time: 1 hr 29 min 27 sec) 
Heartbeat CPU 0 instructions: 1340000003 cycles: 1161821067 heartbeat IPC: 0.818472 cumulative IPC: 0.812927 (Simulation time: 1 hr 30 min 9 sec) 
Heartbeat CPU 0 instructions: 1350000002 cycles: 1174014492 heartbeat IPC: 0.820114 cumulative IPC: 0.813011 (Simulation time: 1 hr 30 min 53 sec) 
Heartbeat CPU 0 instructions: 1360000000 cycles: 1186087007 heartbeat IPC: 0.828328 cumulative IPC: 0.813186 (Simulation time: 1 hr 31 min 57 sec) 
Heartbeat CPU 0 instructions: 1370000004 cycles: 1198567398 heartbeat IPC: 0.801257 cumulative IPC: 0.813047 (Simulation time: 1 hr 32 min 37 sec) 
Heartbeat CPU 0 instructions: 1380000002 cycles: 1210928096 heartbeat IPC: 0.809016 cumulative IPC: 0.813001 (Simulation time: 1 hr 33 min 16 sec) 
Heartbeat CPU 0 instructions: 1390000004 cycles: 1223208230 heartbeat IPC: 0.814324 cumulative IPC: 0.813015 (Simulation time: 1 hr 33 min 58 sec) 
Heartbeat CPU 0 instructions: 1400000001 cycles: 1235569141 heartbeat IPC: 0.809002 cumulative IPC: 0.812971 (Simulation time: 1 hr 34 min 38 sec) 
Heartbeat CPU 0 instructions: 1410000003 cycles: 1247904665 heartbeat IPC: 0.810667 cumulative IPC: 0.812945 (Simulation time: 1 hr 35 min 19 sec) 
Heartbeat CPU 0 instructions: 1420000002 cycles: 1260132224 heartbeat IPC: 0.817825 cumulative IPC: 0.812998 (Simulation time: 1 hr 36 min 1 sec) 
Heartbeat CPU 0 instructions: 1430000003 cycles: 1272396173 heartbeat IPC: 0.815398 cumulative IPC: 0.813024 (Simulation time: 1 hr 36 min 43 sec) 
Heartbeat CPU 0 instructions: 1440000003 cycles: 1284520123 heartbeat IPC: 0.824814 cumulative IPC: 0.813147 (Simulation time: 1 hr 37 min 32 sec) 
Heartbeat CPU 0 instructions: 1450000000 cycles: 1296402002 heartbeat IPC: 0.841617 cumulative IPC: 0.813437 (Simulation time: 1 hr 38 min 41 sec) 
Heartbeat CPU 0 instructions: 1460000003 cycles: 1308065773 heartbeat IPC: 0.857356 cumulative IPC: 0.813871 (Simulation time: 1 hr 39 min 23 sec) 
Heartbeat CPU 0 instructions: 1470000000 cycles: 1319894337 heartbeat IPC: 0.845411 cumulative IPC: 0.814184 (Simulation time: 1 hr 40 min 3 sec) 
Heartbeat CPU 0 instructions: 1480000002 cycles: 1331673162 heartbeat IPC: 0.848981 cumulative IPC: 0.814525 (Simulation time: 1 hr 40 min 43 sec) 
Heartbeat CPU 0 instructions: 1490000003 cycles: 1343452848 heartbeat IPC: 0.848919 cumulative IPC: 0.814859 (Simulation time: 1 hr 41 min 23 sec) 
Heartbeat CPU 0 instructions: 1500000001 cycles: 1355276480 heartbeat IPC: 0.845764 cumulative IPC: 0.815156 (Simulation time: 1 hr 42 min 9 sec) 
Heartbeat CPU 0 instructions: 1510000000 cycles: 1367319953 heartbeat IPC: 0.830325 cumulative IPC: 0.815304 (Simulation time: 1 hr 42 min 49 sec) 
Heartbeat CPU 0 instructions: 1520000004 cycles: 1379341276 heartbeat IPC: 0.831856 cumulative IPC: 0.815463 (Simulation time: 1 hr 43 min 31 sec) 
Heartbeat CPU 0 instructions: 1530000001 cycles: 1391176717 heartbeat IPC: 0.84492 cumulative IPC: 0.815739 (Simulation time: 1 hr 44 min 14 sec) 
Heartbeat CPU 0 instructions: 1540000000 cycles: 1402801893 heartbeat IPC: 0.860202 cumulative IPC: 0.816145 (Simulation time: 1 hr 44 min 54 sec) 
Heartbeat CPU 0 instructions: 1550000002 cycles: 1414678381 heartbeat IPC: 0.842 cumulative IPC: 0.816383 (Simulation time: 1 hr 45 min 36 sec) 
Heartbeat CPU 0 instructions: 1560000000 cycles: 1426513273 heartbeat IPC: 0.844959 cumulative IPC: 0.816644 (Simulation time: 1 hr 46 min 18 sec) 
Heartbeat CPU 0 instructions: 1570000004 cycles: 1438525484 heartbeat IPC: 0.832487 cumulative IPC: 0.816789 (Simulation time: 1 hr 47 min 0 sec) 
Heartbeat CPU 0 instructions: 1580000004 cycles: 1450855299 heartbeat IPC: 0.811042 cumulative IPC: 0.816736 (Simulation time: 1 hr 47 min 41 sec) 
Heartbeat CPU 0 instructions: 1590000002 cycles: 1463017105 heartbeat IPC: 0.822246 cumulative IPC: 0.816786 (Simulation time: 1 hr 48 min 51 sec) 
Heartbeat CPU 0 instructions: 1600000003 cycles: 1475426076 heartbeat IPC: 0.805869 cumulative IPC: 0.816685 (Simulation time: 1 hr 50 min 0 sec) 
Heartbeat CPU 0 instructions: 1610000000 cycles: 1487801608 heartbeat IPC: 0.808046 cumulative IPC: 0.816607 (Simulation time: 1 hr 50 min 45 sec) 
Heartbeat CPU 0 instructions: 1620000000 cycles: 1500318684 heartbeat IPC: 0.798909 cumulative IPC: 0.816445 (Simulation time: 1 hr 51 min 25 sec) 
Heartbeat CPU 0 instructions: 1630000001 cycles: 1512679149 heartbeat IPC: 0.809031 cumulative IPC: 0.816379 (Simulation time: 1 hr 52 min 5 sec) 
Heartbeat CPU 0 instructions: 1640000000 cycles: 1525022384 heartbeat IPC: 0.81016 cumulative IPC: 0.816324 (Simulation time: 1 hr 52 min 45 sec) 
Heartbeat CPU 0 instructions: 1650000000 cycles: 1537230696 heartbeat IPC: 0.819114 cumulative IPC: 0.816348 (Simulation time: 1 hr 53 min 34 sec) 
Heartbeat CPU 0 instructions: 1660000000 cycles: 1549767030 heartbeat IPC: 0.797681 cumulative IPC: 0.816184 (Simulation time: 1 hr 54 min 12 sec) 
Heartbeat CPU 0 instructions: 1670000000 cycles: 1562235968 heartbeat IPC: 0.801993 cumulative IPC: 0.81606 (Simulation time: 1 hr 54 min 51 sec) 
Heartbeat CPU 0 instructions: 1680000001 cycles: 1574690412 heartbeat IPC: 0.802926 cumulative IPC: 0.815947 (Simulation time: 1 hr 55 min 30 sec) 
Heartbeat CPU 0 instructions: 1690000002 cycles: 1587107624 heartbeat IPC: 0.805334 cumulative IPC: 0.815857 (Simulation time: 1 hr 56 min 11 sec) 
Heartbeat CPU 0 instructions: 1700000000 cycles: 1599510571 heartbeat IPC: 0.80626 cumulative IPC: 0.815776 (Simulation time: 1 hr 56 min 49 sec) 
Heartbeat CPU 0 instructions: 1710000000 cycles: 1612027367 heartbeat IPC: 0.798926 cumulative IPC: 0.815634 (Simulation time: 1 hr 57 min 28 sec) 
Heartbeat CPU 0 instructions: 1720000001 cycles: 1624624364 heartbeat IPC: 0.79384 cumulative IPC: 0.81545 (Simulation time: 1 hr 58 min 6 sec) 
Heartbeat CPU 0 instructions: 1730000002 cycles: 1636728491 heartbeat IPC: 0.826165 cumulative IPC: 0.815536 (Simulation time: 1 hr 58 min 44 sec) 
Heartbeat CPU 0 instructions: 1740000003 cycles: 1649389505 heartbeat IPC: 0.789826 cumulative IPC: 0.815322 (Simulation time: 1 hr 59 min 22 sec) 
Heartbeat CPU 0 instructions: 1750000000 cycles: 1661706587 heartbeat IPC: 0.81188 cumulative IPC: 0.815294 (Simulation time: 2 hr 0 min 3 sec) 
Heartbeat CPU 0 instructions: 1760000001 cycles: 1673861859 heartbeat IPC: 0.822688 cumulative IPC: 0.815352 (Simulation time: 2 hr 0 min 42 sec) 
Heartbeat CPU 0 instructions: 1770000004 cycles: 1686177985 heartbeat IPC: 0.811944 cumulative IPC: 0.815326 (Simulation time: 2 hr 1 min 21 sec) 
Heartbeat CPU 0 instructions: 1780000000 cycles: 1698475421 heartbeat IPC: 0.813177 cumulative IPC: 0.815309 (Simulation time: 2 hr 2 min 0 sec) 
Heartbeat CPU 0 instructions: 1790000001 cycles: 1710920132 heartbeat IPC: 0.803554 cumulative IPC: 0.815216 (Simulation time: 2 hr 2 min 38 sec) 
Heartbeat CPU 0 instructions: 1800000002 cycles: 1723203722 heartbeat IPC: 0.814094 cumulative IPC: 0.815208 (Simulation time: 2 hr 3 min 17 sec) 
Heartbeat CPU 0 instructions: 1810000001 cycles: 1735357666 heartbeat IPC: 0.822778 cumulative IPC: 0.815265 (Simulation time: 2 hr 3 min 55 sec) 
Heartbeat CPU 0 instructions: 1820000001 cycles: 1747895059 heartbeat IPC: 0.797614 cumulative IPC: 0.815128 (Simulation time: 2 hr 4 min 34 sec) 
Heartbeat CPU 0 instructions: 1830000001 cycles: 1760260776 heartbeat IPC: 0.808687 cumulative IPC: 0.815079 (Simulation time: 2 hr 5 min 13 sec) 
Heartbeat CPU 0 instructions: 1840000004 cycles: 1772609779 heartbeat IPC: 0.809782 cumulative IPC: 0.81504 (Simulation time: 2 hr 5 min 54 sec) 
Heartbeat CPU 0 instructions: 1850000000 cycles: 1784915580 heartbeat IPC: 0.812625 cumulative IPC: 0.815022 (Simulation time: 2 hr 6 min 33 sec) 
Heartbeat CPU 0 instructions: 1860000003 cycles: 1797255847 heartbeat IPC: 0.810355 cumulative IPC: 0.814987 (Simulation time: 2 hr 7 min 12 sec) 
Heartbeat CPU 0 instructions: 1870000001 cycles: 1809578569 heartbeat IPC: 0.811509 cumulative IPC: 0.814962 (Simulation time: 2 hr 7 min 52 sec) 
Heartbeat CPU 0 instructions: 1880000000 cycles: 1821727197 heartbeat IPC: 0.823138 cumulative IPC: 0.81502 (Simulation time: 2 hr 8 min 32 sec) 
Heartbeat CPU 0 instructions: 1890000004 cycles: 1834050271 heartbeat IPC: 0.811486 cumulative IPC: 0.814995 (Simulation time: 2 hr 9 min 11 sec) 
Heartbeat CPU 0 instructions: 1900000004 cycles: 1846476965 heartbeat IPC: 0.804719 cumulative IPC: 0.814921 (Simulation time: 2 hr 9 min 51 sec) 
Heartbeat CPU 0 instructions: 1910000002 cycles: 1858939806 heartbeat IPC: 0.802385 cumulative IPC: 0.81483 (Simulation time: 2 hr 10 min 30 sec) 
Heartbeat CPU 0 instructions: 1920000001 cycles: 1870909291 heartbeat IPC: 0.835458 cumulative IPC: 0.814972 (Simulation time: 2 hr 11 min 7 sec) 
Heartbeat CPU 0 instructions: 1930000004 cycles: 1883051137 heartbeat IPC: 0.823598 cumulative IPC: 0.815032 (Simulation time: 2 hr 11 min 46 sec) 
Heartbeat CPU 0 instructions: 1940000003 cycles: 1895137900 heartbeat IPC: 0.827351 cumulative IPC: 0.815116 (Simulation time: 2 hr 12 min 24 sec) 
Heartbeat CPU 0 instructions: 1950000002 cycles: 1908119951 heartbeat IPC: 0.770294 cumulative IPC: 0.814789 (Simulation time: 2 hr 13 min 1 sec) 
Heartbeat CPU 0 instructions: 1960000002 cycles: 1920685573 heartbeat IPC: 0.795822 cumulative IPC: 0.814656 (Simulation time: 2 hr 13 min 39 sec) 
Heartbeat CPU 0 instructions: 1970000000 cycles: 1933337567 heartbeat IPC: 0.790389 cumulative IPC: 0.814486 (Simulation time: 2 hr 14 min 17 sec) 
Heartbeat CPU 0 instructions: 1980000002 cycles: 1946109669 heartbeat IPC: 0.782957 cumulative IPC: 0.814264 (Simulation time: 2 hr 14 min 55 sec) 
Heartbeat CPU 0 instructions: 1990000001 cycles: 1958533619 heartbeat IPC: 0.804897 cumulative IPC: 0.814201 (Simulation time: 2 hr 15 min 33 sec) 
*** Reached end of trace: traces/445.gobmk-30B.champsimtrace.xz
Heartbeat CPU 0 instructions: 2000000003 cycles: 1970673964 heartbeat IPC: 0.8237 cumulative IPC: 0.814263 (Simulation time: 2 hr 16 min 10 sec) 
Finished CPU 0 instructions: 1500000000 cycles: 1842155940 cumulative IPC: 0.814263 (Simulation time: 2 hr 16 min 10 sec) 

ChampSim completed all CPUs

Region of Interest Statistics

CPU 0 cumulative IPC: 0.814263 instructions: 1500000000 cycles: 1842155940
cpu0_DTLB TOTAL     ACCESS:  337345530  HIT:  336316304  MISS:    1029226
cpu0_DTLB LOAD      ACCESS:  230533030  HIT:  229626854  MISS:     906176
cpu0_DTLB RFO       ACCESS:  106812500  HIT:  106689450  MISS:     123050
cpu0_DTLB PREFETCH  ACCESS:          0  HIT:          0  MISS:          0
cpu0_DTLB WRITEBACK ACCESS:          0  HIT:          0  MISS:          0
cpu0_DTLB TRANSLATION ACCESS:          0  HIT:          0  MISS:          0
cpu0_DTLB PREFETCH  REQUESTED:          0  ISSUED:          0  USEFUL:          0  USELESS:          0
cpu0_DTLB AVERAGE MISS LATENCY: 9.88661 cycles
cpu0_ITLB TOTAL     ACCESS:  133271300  HIT:  133265861  MISS:       5439
cpu0_ITLB LOAD      ACCESS:  133271300  HIT:  133265861  MISS:       5439
cpu0_ITLB RFO       ACCESS:          0  HIT:          0  MISS:          0
cpu0_ITLB PREFETCH  ACCESS:          0  HIT:          0  MISS:          0
cpu0_ITLB WRITEBACK ACCESS:          0  HIT:          0  MISS:          0
cpu0_ITLB TRANSLATION ACCESS:          0  HIT:          0  MISS:          0
cpu0_ITLB PREFETCH  REQUESTED:          0  ISSUED:          0  USEFUL:          0  USELESS:          0
cpu0_ITLB AVERAGE MISS LATENCY: 13.0531 cycles
cpu0_L1I TOTAL     ACCESS:  161456419  HIT:  155770078  MISS:    5686341
cpu0_L1I LOAD      ACCESS:  161456419  HIT:  155770078  MISS:    5686341
cpu0_L1I RFO       ACCESS:          0  HIT:          0  MISS:          0
cpu0_L1I PREFETCH  ACCESS:          0  HIT:          0  MISS:          0
cpu0_L1I WRITEBACK ACCESS:          0  HIT:          0  MISS:          0
cpu0_L1I TRANSLATION ACCESS:          0  HIT:          0  MISS:          0
cpu0_L1I PREFETCH  REQUESTED:          0  ISSUED:          0  USEFUL:          0  USELESS:          0
cpu0_L1I AVERAGE MISS LATENCY: 12.0541 cycles
cpu0_STLB TOTAL     ACCESS:    1034665  HIT:     945114  MISS:      89551
cpu0_STLB LOAD      ACCESS:     911615  HIT:     825747  MISS:      85868
cpu0_STLB RFO       ACCESS:     123050  HIT:     119367  MISS:       3683
cpu0_STLB PREFETCH  ACCESS:          0  HIT:          0  MISS:          0
cpu0_STLB WRITEBACK ACCESS:          0  HIT:          0  MISS:          0
cpu0_STLB TRANSLATION ACCESS:          0  HIT:          0  MISS:          0
cpu0_STLB PREFETCH  REQUESTED:          0  ISSUED:          0  USEFUL:          0  USELESS:          0
cpu0_STLB AVERAGE MISS LATENCY: 10.3616 cycles
cpu0_L1D TOTAL     ACCESS:  420637062  HIT:  415390675  MISS:    5246387
cpu0_L1D LOAD      ACCESS:  228909412  HIT:  225436993  MISS:    3472419
cpu0_L1D RFO       ACCESS:  191638178  HIT:  189874023  MISS:    1764155
cpu0_L1D PREFETCH  ACCESS:          0  HIT:          0  MISS:          0
cpu0_L1D WRITEBACK ACCESS:          0  HIT:          0  MISS:          0
cpu0_L1D TRANSLATION ACCESS:      89472  HIT:      79659  MISS:       9813
cpu0_L1D PREFETCH  REQUESTED:          0  ISSUED:          0  USEFUL:          0  USELESS:          0
cpu0_L1D AVERAGE MISS LATENCY: 36.8766 cycles
cpu0_L2C TOTAL     ACCESS:   13562939  HIT:   11815530  MISS:    1747409
cpu0_L2C LOAD      ACCESS:    9158715  HIT:    7736128  MISS:    1422587
cpu0_L2C RFO       ACCESS:    1764128  HIT:    1441364  MISS:     322764
cpu0_L2C PREFETCH  ACCESS:          0  HIT:          0  MISS:          0
cpu0_L2C WRITEBACK ACCESS:    2630283  HIT:    2628966  MISS:       1317
cpu0_L2C TRANSLATION ACCESS:       9813  HIT:       9072  MISS:        741
cpu0_L2C PREFETCH  REQUESTED:          0  ISSUED:          0  USEFUL:          0  USELESS:          0
cpu0_L2C AVERAGE MISS LATENCY: 80.9138 cycles
LLC TOTAL     ACCESS:    2609292  HIT:    2104742  MISS:     504550
LLC LOAD      ACCESS:    1422586  HIT:     989390  MISS:     433196
LLC RFO       ACCESS:     322762  HIT:     256599  MISS:      66163
LLC PREFETCH  ACCESS:          0  HIT:          0  MISS:          0
LLC WRITEBACK ACCESS:     863203  HIT:     858046  MISS:       5157
LLC TRANSLATION ACCESS:        741  HIT:        707  MISS:         34
LLC PREFETCH  REQUESTED:          0  ISSUED:          0  USEFUL:          0  USELESS:          0
LLC AVERAGE MISS LATENCY: 207.554 cycles
~~~~~~~~~~Reuse Distance Profiler output~~~~~~~~~~
0	143056928	26521632
1	53820896	22655024
2	33214432	20083072
3	25235984	15784272
4	19814160	12111248
5	15102064	9722304
6	12093936	8208752
7	9904656	6488128
8	8373792	5841824
9	7721376	5425200
10	6669200	4549008
11	6233216	4298464
12	5695744	3640640
13	5516848	3740224
14	5088736	3525824
15	4710992	3301344
16	4327088	2935408
17	4490528	2917136
18	3882544	2779616
19	3677184	2673776
20	3614480	2719184
21	3256288	2450144
22	2866144	2141184
23	2587584	1970848
24	2520000	1965168
25	2417072	1888608
26	2268400	1773584
27	2164368	1696512
28	2061904	1593552
29	2317936	1658000
30	2049168	1610528
31	1912208	1441184
32	1807328	1334944
33	1687472	1282320
34	1608448	1216032
35	1549808	1153712
36	1503472	1120576
37	1471088	1074592
38	1441712	1034016
39	1406960	998816
40	1377680	981616
41	1296096	913760
42	1287200	911520
43	1271504	907520
44	1182448	838720
45	1137600	831376
46	1146496	849136
47	1124784	832320
48	1134336	855184
49	1088896	829264
50	1074496	818512
51	1048960	801744
52	1026864	788800
53	1042656	794432
54	992880	761040
55	989360	759712
56	945632	726160
57	921504	713872
58	899040	697456
59	877968	681424
60	858176	666672
61	820080	634128
62	770432	581824
63	738704	556112
64	1410400	1052128
66	1359984	991504
68	1265120	899104
70	1216256	842880
72	1189712	822928
74	1202640	838992
76	1167984	799312
78	1130592	778224
80	1082992	744992
82	1033264	712912
84	990832	692240
86	948448	673776
88	899264	641472
90	873904	630240
92	829744	591472
94	783120	556752
96	751408	523648
98	721376	501744
100	685888	471504
102	643088	425264
104	637328	421488
106	618128	408960
108	614256	407952
110	603984	396352
112	598672	398896
114	590160	398640
116	590656	412544
118	584800	418016
120	572016	411456
122	537536	380832
124	532512	385232
126	488384	352016
128	933056	682512
132	866160	645024
136	830416	643648
140	798512	634416
144	768672	626416
148	748912	608848
152	727424	583920
156	695056	540576
160	654512	513696
164	634976	498336
168	607712	482320
172	592528	474752
176	586176	475360
180	570304	461776
184	549440	443616
188	548848	444832
192	521408	420416
196	518864	419504
200	504672	407536
204	484256	395952
208	490208	403728
212	473744	391216
216	470160	390992
220	455136	376320
224	438768	360304
228	422880	344944
232	402736	330944
236	384416	311584
240	394160	320816
244	375280	300880
248	366768	292096
252	360512	287616
256	698112	558752
264	659392	525696
272	657568	525440
280	635920	504112
288	613424	481536
296	604736	470896
304	585904	456912
312	570720	444832
320	563312	438896
328	590064	463312
336	578320	451072
344	561200	434864
352	557408	434992
360	530720	408368
368	532592	412608
376	545760	427232
384	536624	420864
392	520432	409632
400	476848	373856
408	465824	365920
416	441856	346144
424	426544	333008
432	415712	323952
440	396480	309584
448	395424	310576
456	380096	299024
464	360880	281824
472	344864	267584
480	333040	258368
488	327440	253424
496	315312	244112
504	312000	239680
512	589024	450880
528	558192	427456
544	538000	411392
560	505456	383728
576	494240	378208
592	488016	373072
608	463664	353392
624	465888	357808
640	445200	341104
656	421536	322560
672	411888	317424
688	399616	309088
704	391120	301712
720	384384	295088
736	378288	287952
752	374544	285520
768	378000	289040
784	376736	287632
800	371008	283904
816	373152	283808
832	365648	277264
848	352592	261456
864	344928	256432
880	346704	255536
896	341760	249904
912	345872	252976
928	343568	250544
944	344096	248720
960	346464	248832
976	344048	246272
992	346512	247024
1008	343200	243152
1024	665712	466064
1056	661856	460432
1088	655312	454336
1120	643248	444352
1152	624944	429344
1184	615248	420720
1216	594048	403408
1248	576848	389584
1280	551504	368592
1312	527440	350064
1344	518048	343760
1376	486944	322144
1408	467424	308272
1440	440688	291280
1472	421568	278352
1504	403088	264464
1536	376768	244240
1568	362128	234976
1600	345904	225712
1632	333840	214560
1664	320464	204880
1696	310672	200784
1728	300368	193072
1760	290080	186256
1792	275376	174736
1824	262896	164832
1856	246048	150688
1888	237808	146416
1920	227344	142288
1952	216048	134832
1984	210368	129568
2016	200688	122560
2048	394384	245104
2112	355088	216112
2176	340672	208992
2240	314080	190464
2304	299264	179856
2368	282912	168640
2432	265552	157104
2496	256864	153104
2560	242064	143408
2624	237472	143616
2688	218080	127648
2752	212688	123504
2816	197856	115584
2880	189808	109680
2944	182192	106048
3008	172272	99056
3072	168368	97168
3136	162688	95824
3200	150320	84592
3264	143280	79776
3328	142032	80816
3392	134528	75728
3456	123488	70640
3520	121904	69968
3584	118720	68144
3648	118304	68112
3712	110960	61312
3776	106480	59696
3840	105696	59168
3904	100800	54112
3968	101392	57344
4032	96608	54064
4096	185888	102016
4224	177952	96848
4352	166880	89696
4480	158784	85440
4608	151088	78480
4736	149968	79920
4864	140848	73488
4992	139744	71520
5120	134608	70672
5248	150192	88624
5376	136432	75120
5504	129440	68192
5632	119712	59920
5760	117712	61424
5888	111232	57120
6016	106112	55120
6144	107168	55248
6272	106560	54992
6400	105504	55728
6528	103744	55856
6656	105312	57728
6784	106304	58784
6912	98304	54000
7040	98192	53936
7168	99840	54032
7296	95808	52608
7424	95904	52048
7552	95968	52768
7680	94176	52080
7808	94240	51136
7936	90784	51120
8064	94048	53312
8192	191104	112880
8448	180288	103264
8704	169264	98928
8960	146272	80032
9216	140080	75840
9472	133248	71424
9728	122208	62880
9984	122976	65200
10240	123792	66144
10496	114256	60544
10752	102736	50944
11008	103072	52560
11264	95296	46848
11520	94576	48832
11776	89568	44512
12032	82944	40672
12288	78272	36416
12544	77744	35664
12800	77856	34208
13056	79408	34160
13312	74016	31312
13568	75456	30640
13824	74016	30416
14080	70096	31744
14336	67104	32128
14592	62112	30320
14848	64432	33888
15104	66128	35792
15360	62256	33072
15616	60144	31904
15872	57520	30736
16128	54336	28224
16384	101616	49280
16896	97520	46960
17408	90848	41792
17920	87104	39968
18432	93424	39040
18944	105024	34624
19456	108176	34480
19968	83472	32624
20480	70192	31568
20992	70368	34224
21504	81376	43792
22016	75872	41504
22528	66256	33168
23040	65600	33456
23552	62944	31792
24064	59312	28976
24576	53088	26032
25088	51088	24160
25600	49856	22960
26112	49200	22992
26624	48304	22640
27136	45680	20896
27648	45792	21776
28160	41600	18800
28672	42288	19920
29184	41168	19184
29696	42272	19840
30208	38656	17264
30720	37792	17264
31232	37568	17728
31744	39296	18800
32256	38176	17440
32768	75792	36992
33792	66416	29552
34816	65296	29376
35840	59280	26720
36864	59744	26640
37888	56032	23712
38912	53376	22560
39936	48128	21184
40960	51984	22992
41984	49360	21632
43008	49776	22976
44032	46064	20128
45056	47200	21040
46080	45344	19264
47104	43344	18368
48128	42400	18704
49152	39856	15536
50176	36704	14128
51200	35872	13696
52224	36064	14896
53248	34288	13472
54272	34240	14480
55296	34896	15552
56320	31328	13664
57344	30672	12528
58368	32464	13568
59392	29680	12288
60416	28416	11392
61440	29520	12576
62464	28976	11680
63488	27824	10576
64512	25888	9984
65536	51840	22272
67584	52816	22128
69632	50096	20432
71680	45904	19088
73728	46064	19968
75776	42848	18384
77824	41120	16736
79872	38448	16848
81920	35712	14752
83968	33536	13760
86016	40016	18624
88064	40400	18448
90112	35392	14400
92160	34960	16096
94208	32864	14400
96256	32592	14336
98304	30832	13584
100352	29024	13024
102400	28256	12992
104448	24768	9760
106496	28784	13088
108544	26560	11232
110592	24656	10272
112640	25440	11040
114688	25040	10432
116736	24192	10336
118784	23888	11232
120832	24096	12000
122880	22240	9152
124928	21664	9344
126976	21616	10064
129024	21536	10464
131072	44144	21808
135168	40576	18960
139264	40016	20432
143360	38144	17616
147456	34352	16096
151552	34816	17392
155648	32832	14432
159744	31776	14432
163840	30416	14928
167936	29904	12064
172032	27392	12176
176128	27392	13440
180224	28384	14384
184320	24944	12400
188416	28768	16064
192512	27856	15376
196608	26880	14336
200704	25136	14480
204800	27664	16112
208896	25104	13616
212992	27680	17024
217088	24832	14144
221184	25552	15872
225280	24048	14128
229376	25312	15920
233472	25472	16528
237568	23408	14592
241664	26512	18336
245760	20624	12832
249856	25632	18384
253952	22960	15632
258048	22928	15504
262144	45520	29728
270336	37664	24864
278528	44176	31392
286720	31744	19632
294912	34480	22960
303104	43088	29984
311296	37232	26336
319488	39904	28688
327680	32992	21744
335872	28896	18848
344064	33184	24528
352256	31776	22896
360448	36624	28544
368640	28144	19968
376832	26944	20288
385024	27680	20416
393216	24272	16944
401408	19488	13056
409600	16896	10416
417792	18176	11840
425984	16768	10928
434176	17056	11776
442368	18224	12272
450560	14896	9952
458752	20688	14864
466944	14688	10432
475136	19456	13856
483328	12000	7424
491520	17616	11856
499712	15264	10608
507904	16576	12096
516096	16560	12160
524288	31136	22288
540672	24640	17632
557056	23456	15984
573440	21360	14736
589824	20384	13008
606208	25296	19520
622592	20336	14800
638976	18512	12160
655360	18592	13584
671744	24112	19296
688128	22544	17808
704512	18432	14256
720896	14160	9056
737280	13680	9552
753664	10624	6256
770048	13152	9424
786432	15648	12128
802816	17456	13072
819200	13424	9920
835584	12544	9024
851968	9744	7104
868352	17696	13952
884736	11824	8304
901120	10192	6832
917504	12880	9248
933888	11264	8112
950272	8960	6992
966656	8656	6512
983040	13104	10432
999424	10704	7168
1015808	7744	5808
1032192	8160	5680
1048576	15776	12336
1081344	20560	15440
1114112	16224	11632
1146880	14880	10800
1179648	14992	11952
1212416	13168	8800
1245184	12944	8512
1277952	12352	9776
1310720	11600	8288
1343488	13472	9488
1376256	9648	6736
1409024	15072	11168
1441792	15040	12048
1474560	8912	6016
1507328	8576	5968
1540096	9648	7088
1572864	6400	4128
1605632	11616	9568
1638400	6240	4432
1671168	10032	7296
1703936	11856	8960
1736704	9920	7776
1769472	6288	3600
1802240	6512	4752
1835008	7248	5088
1867776	7216	5424
1900544	7552	4880
1933312	12192	7344
1966080	10304	7152
1998848	10480	7152
2031616	12256	9280
2064384	9696	7920
2097152	380416	10528
2162688	61616	9024
2228224	17680	11584
2293760	13856	11040
2359296	20368	15472
2424832	14176	10992
2490368	18624	12496
2555904	16592	12432
2621440	13920	8096
2686976	9360	5952
2752512	16560	10640
2818048	9392	6032
2883584	11920	8096
2949120	11088	6592
3014656	11120	6544
3080192	9200	6480
3145728	13312	9520
3211264	14272	9168
3276800	9984	6208
3342336	6640	4048
3407872	6512	4832
3473408	10272	7712
3538944	7008	4160
3604480	12768	9232
3670016	6544	4688
3735552	6624	4464
3801088	5808	3584
3866624	4912	3808
3932160	5584	4112
3997696	4608	2864
4063232	3984	3328
4128768	7296	6144
4194304	9040	6928
4325376	6672	4320
4456448	11264	7344
4587520	11248	8224
4718592	12320	8720
4849664	10864	8176
4980736	5264	3536
5111808	4224	2800
5242880	6560	4240
5373952	7328	5952
5505024	10624	8544
5636096	2352	1344
5767168	6128	4224
5898240	3344	2480
6029312	5584	4304
6160384	8992	6368
6291456	5760	4448
6422528	4096	3216
6553600	4096	2736
6684672	4176	3248
6815744	5152	3648
6946816	3344	2480
7077888	2160	1296
7208960	3520	2528
7340032	3376	2864
7471104	3536	2720
7602176	4944	3792
7733248	2336	1616
7864320	4272	3280
7995392	3664	2704
8126464	2800	2384
8257536	3344	2176
8388608	7248	5680
8650752	3408	2496
8912896	3136	2368
9175040	3536	2704
9437184	8352	5824
9699328	7248	4176
9961472	5536	4112
10223616	7920	6048
10485760	10416	7520
10747904	4032	2928
11010048	2752	1840
11272192	5728	4272
11534336	4448	2688
11796480	2736	1904
12058624	4352	3056
12320768	4752	2704
12582912	2000	1456
12845056	4128	3136
13107200	3856	3168
13369344	2128	1424
13631488	2208	1536
13893632	2160	1632
14155776	5104	3408
14417920	2880	2112
14680064	2800	2192
14942208	1664	1024
15204352	2144	1472
15466496	2064	1712
15728640	1520	1088
15990784	1840	1552
16252928	1808	1520
16515072	2448	1792
16777216	3824	3152
17301504	3232	2704
17825792	3728	2480
18350080	3952	2656
18874368	4832	4016
19398656	5008	3392
19922944	4656	3360
20447232	2592	1952
20971520	9472	5632
21495808	4144	3312
22020096	2544	1936
22544384	3920	2752
23068672	3984	2768
23592960	3344	2336
24117248	2544	1696
24641536	3328	2176
25165824	2656	1648
25690112	4704	3696
26214400	3376	2560
26738688	3632	2320
27262976	3712	2400
27787264	4000	2560
28311552	2224	1568
28835840	3072	1808
29360128	2048	1472
29884416	2320	1552
30408704	2288	1744
30932992	3024	2096
31457280	3120	1968
31981568	3360	2416
32505856	3472	2336
33030144	2544	1872
33554432	5184	3984
34603008	4192	2928
35651584	4752	2976
36700160	3888	2240
37748736	3952	2624
38797312	4016	2640
39845888	4048	3200
40894464	2272	2112
41943040	3056	2672
42991616	2112	2032
44040192	3360	2560
45088768	2240	2096
46137344	1488	1408
47185920	2528	2448
48234496	1984	1856
49283072	2144	2096
50331648	2208	2032
51380224	2304	2176
52428800	3376	2944
53477376	3184	2928
54525952	4128	3360
55574528	5168	3632
56623104	1728	1552
57671680	2336	2128
58720256	3184	2576
59768832	3744	3328
60817408	1968	1760
61865984	2256	2128
62914560	2352	2288
63963136	3472	2896
65011712	2304	2224
66060288	2080	1984
67108864	5568	4800
69206016	5712	4832
71303168	5376	4416
73400320	3920	3776
75497472	3616	3344
77594624	4656	4224
79691776	4224	3776
81788928	3744	3456
83886080	4304	4160
85983232	3072	2944
88080384	3312	3136
90177536	4272	3840
92274688	4256	3616
94371840	2608	2496
96468992	2768	2688
98566144	2176	2144
100663296	2288	2224
102760448	2640	2544
104857600	2640	2544
106954752	4960	3824
109051904	2672	2576
111149056	6464	4672
113246208	2688	2512
115343360	2624	2464
117440512	2432	2336
119537664	2608	2480
121634816	2720	2576
123731968	2640	2512
125829120	2816	2656
127926272	2432	2256
130023424	2336	2160
132120576	2496	2336
134217728	5024	4720
138412032	4928	4640
142606336	4384	4080
146800640	4256	4032
150994944	4800	4416
155189248	4800	4368
159383552	4432	4112
163577856	4464	4128
167772160	3984	3824
171966464	3376	3216
176160768	2656	2560
180355072	2672	2544
184549376	2224	2176
188743680	4176	4000
192937984	2800	2592
197132288	3344	3120
201326592	2672	2512
205520896	3088	2880
209715200	3264	2960
213909504	3344	3072
218103808	3152	2864
222298112	3040	2752
226492416	3264	2944
230686720	2496	2304
234881024	2960	2640
239075328	2800	2480
243269632	2672	2416
247463936	3104	2784
251658240	3072	2736
255852544	3056	2720
260046848	2912	2608
264241152	2272	2048
268435456	4016	3584
276824064	4688	4160
285212672	4272	3776
293601280	4256	3680
301989888	4688	4112
310378496	3616	3168
318767104	3728	3216
327155712	2944	2560
335544320	4384	3824
343932928	4096	3520
352321536	2032	1792
360710144	1712	1536
369098752	2304	1952
377487360	1776	1552
385875968	3328	2800
394264576	4208	3520
402653184	3584	2992
411041792	3200	2672
419430400	3280	2704
427819008	4304	3296
436207616	3584	2848
444596224	3728	2688
452984832	3328	2688
461373440	2608	2128
469762048	2320	1920
478150656	2544	2048
486539264	2384	1968
494927872	2944	2352
503316480	2512	1856
511705088	256	192
520093696	0	0
528482304	0	0
536870912	0	0
553648128	0	0
570425344	0	0
587202560	0	0
603979776	0	0
620756992	0	0
637534208	0	0
654311424	0	0
671088640	0	0
687865856	0	0
704643072	0	0
721420288	0	0
738197504	0	0
754974720	0	0
771751936	0	0
788529152	0	0
805306368	0	0
822083584	0	0
838860800	0	0
855638016	0	0
872415232	0	0
889192448	0	0
905969664	0	0
922746880	0	0
939524096	0	0
956301312	0	0
973078528	0	0
989855744	0	0
1006632960	0	0
1023410176	0	0
1040187392	0	0
1056964608	0	0
1073741824	0	0
1107296256	0	0
1140850688	0	0
1174405120	0	0
1207959552	0	0
1241513984	0	0
1275068416	0	0
1308622848	0	0
1342177280	0	0
1375731712	0	0
1409286144	0	0
1442840576	0	0
1476395008	0	0
1509949440	0	0
1543503872	0	0
1577058304	0	0
1610612736	0	0
1644167168	0	0
1677721600	0	0
1711276032	0	0
1744830464	0	0
1778384896	0	0
1811939328	0	0
1845493760	0	0
1879048192	0	0
1912602624	0	0
1946157056	0	0
1979711488	0	0
2013265920	0	0
2046820352	0	0
2080374784	0	0
2113929216	0	0
2147483648	0	0
2214592512	0	0
2281701376	0	0
2348810240	0	0
2415919104	0	0
2483027968	0	0
2550136832	0	0
2617245696	0	0
2684354560	0	0
2751463424	0	0
2818572288	0	0
2885681152	0	0
2952790016	0	0
3019898880	0	0
3087007744	0	0
3154116608	0	0
3221225472	0	0
3288334336	0	0
3355443200	0	0
3422552064	0	0
3489660928	0	0
3556769792	0	0
3623878656	0	0
3690987520	0	0
3758096384	0	0
3825205248	0	0
3892314112	0	0
3959422976	0	0
4026531840	0	0
4093640704	0	0
4160749568	0	0
4227858432	0	0
~~~~~~~~~~Reuse Distance Profiler output end~~~~~~~~~~

DRAM Statistics
 CHANNEL 0
 RQ ROW_BUFFER_HIT:      24455  ROW_BUFFER_MISS:     474767
 DBUS AVG_CONGESTED_CYCLE:    3.84749
 WQ ROW_BUFFER_HIT:      85594  ROW_BUFFER_MISS:     304941  FULL:          0


CPU 0 Branch Prediction Accuracy: 85.9992% MPKI: 26.3311 Average ROB Occupancy at Mispredict: 13.2753
Branch type MPKI
BRANCH_DIRECT_JUMP: 0.000485333
BRANCH_INDIRECT: 0.000124
BRANCH_CONDITIONAL: 26.3038
BRANCH_DIRECT_CALL: 0.00115867
BRANCH_INDIRECT_CALL: 0.023786
BRANCH_RETURN: 0.001768

