
*** ChampSim Multicore Out-of-Order Simulator ***

Warmup Instructions: 500000000
Simulation Instructions: 1500000000
Number of CPUs: 1
Off-chip DRAM Size: 4 GiB Channels: 1 Width: 64-bit Data Rate: 3200 MT/s

VirtualMemory physical capacity: 8588881920 num_ppages: 2096895
VirtualMemory page size: 4096 log2_page_size: 12

CPU 0 runs traces/445.gobmk-17B.champsimtrace.xz
CPU 0 Bimodal branch predictor
Basic BTB sets: 1024 ways: 8 indirect buffer size: 4096 RAS size: 64
Initializing LRU.
Initializing LRU.
Initializing LRU.
Initializing LRU.
Initializing rdLRU.
Initializing LRU.
Initializing LRU.
Heartbeat CPU 0 instructions: 10000001 cycles: 2543907 heartbeat IPC: 3.93096 cumulative IPC: 3.93096 (Simulation time: 0 hr 0 min 37 sec) 
Heartbeat CPU 0 instructions: 20000002 cycles: 5095763 heartbeat IPC: 3.91872 cumulative IPC: 3.92483 (Simulation time: 0 hr 1 min 11 sec) 
Heartbeat CPU 0 instructions: 30000002 cycles: 7663831 heartbeat IPC: 3.89398 cumulative IPC: 3.91449 (Simulation time: 0 hr 1 min 45 sec) 
Heartbeat CPU 0 instructions: 40000001 cycles: 10240551 heartbeat IPC: 3.8809 cumulative IPC: 3.90604 (Simulation time: 0 hr 2 min 20 sec) 
Heartbeat CPU 0 instructions: 50000001 cycles: 12814028 heartbeat IPC: 3.88579 cumulative IPC: 3.90197 (Simulation time: 0 hr 2 min 54 sec) 
Heartbeat CPU 0 instructions: 60000003 cycles: 15392452 heartbeat IPC: 3.87834 cumulative IPC: 3.89801 (Simulation time: 0 hr 3 min 29 sec) 
Heartbeat CPU 0 instructions: 70000003 cycles: 17985192 heartbeat IPC: 3.85692 cumulative IPC: 3.89209 (Simulation time: 0 hr 4 min 4 sec) 
Heartbeat CPU 0 instructions: 80000002 cycles: 20575600 heartbeat IPC: 3.8604 cumulative IPC: 3.8881 (Simulation time: 0 hr 4 min 39 sec) 
Heartbeat CPU 0 instructions: 90000003 cycles: 23173124 heartbeat IPC: 3.84982 cumulative IPC: 3.88381 (Simulation time: 0 hr 5 min 15 sec) 
Heartbeat CPU 0 instructions: 100000001 cycles: 25761413 heartbeat IPC: 3.86356 cumulative IPC: 3.88177 (Simulation time: 0 hr 5 min 50 sec) 
Heartbeat CPU 0 instructions: 110000002 cycles: 28354237 heartbeat IPC: 3.8568 cumulative IPC: 3.87949 (Simulation time: 0 hr 6 min 25 sec) 
Heartbeat CPU 0 instructions: 120000000 cycles: 30953729 heartbeat IPC: 3.8469 cumulative IPC: 3.87675 (Simulation time: 0 hr 7 min 0 sec) 
Heartbeat CPU 0 instructions: 130000001 cycles: 33522878 heartbeat IPC: 3.89234 cumulative IPC: 3.87795 (Simulation time: 0 hr 7 min 35 sec) 
Heartbeat CPU 0 instructions: 140000002 cycles: 36106628 heartbeat IPC: 3.87034 cumulative IPC: 3.8774 (Simulation time: 0 hr 8 min 10 sec) 
Heartbeat CPU 0 instructions: 150000003 cycles: 38690931 heartbeat IPC: 3.86952 cumulative IPC: 3.87688 (Simulation time: 0 hr 8 min 45 sec) 
Heartbeat CPU 0 instructions: 160000003 cycles: 41271813 heartbeat IPC: 3.87464 cumulative IPC: 3.87674 (Simulation time: 0 hr 9 min 20 sec) 
Heartbeat CPU 0 instructions: 170000002 cycles: 43852007 heartbeat IPC: 3.87568 cumulative IPC: 3.87668 (Simulation time: 0 hr 9 min 55 sec) 
Heartbeat CPU 0 instructions: 180000000 cycles: 46445075 heartbeat IPC: 3.85643 cumulative IPC: 3.87555 (Simulation time: 0 hr 10 min 48 sec) 
Heartbeat CPU 0 instructions: 190000000 cycles: 49030023 heartbeat IPC: 3.86855 cumulative IPC: 3.87518 (Simulation time: 0 hr 11 min 51 sec) 
Heartbeat CPU 0 instructions: 200000001 cycles: 51618325 heartbeat IPC: 3.86354 cumulative IPC: 3.87459 (Simulation time: 0 hr 12 min 35 sec) 
Heartbeat CPU 0 instructions: 210000001 cycles: 54193712 heartbeat IPC: 3.88291 cumulative IPC: 3.87499 (Simulation time: 0 hr 13 min 12 sec) 
Heartbeat CPU 0 instructions: 220000001 cycles: 56769083 heartbeat IPC: 3.88294 cumulative IPC: 3.87535 (Simulation time: 0 hr 14 min 3 sec) 
Heartbeat CPU 0 instructions: 230000003 cycles: 59341383 heartbeat IPC: 3.88757 cumulative IPC: 3.87588 (Simulation time: 0 hr 14 min 41 sec) 
Heartbeat CPU 0 instructions: 240000003 cycles: 61910887 heartbeat IPC: 3.8918 cumulative IPC: 3.87654 (Simulation time: 0 hr 15 min 18 sec) 
Heartbeat CPU 0 instructions: 250000001 cycles: 64477346 heartbeat IPC: 3.89642 cumulative IPC: 3.87733 (Simulation time: 0 hr 15 min 55 sec) 
Heartbeat CPU 0 instructions: 260000001 cycles: 67043792 heartbeat IPC: 3.89644 cumulative IPC: 3.87806 (Simulation time: 0 hr 16 min 33 sec) 
Heartbeat CPU 0 instructions: 270000000 cycles: 69609213 heartbeat IPC: 3.898 cumulative IPC: 3.8788 (Simulation time: 0 hr 17 min 10 sec) 
Heartbeat CPU 0 instructions: 280000002 cycles: 72178683 heartbeat IPC: 3.89185 cumulative IPC: 3.87926 (Simulation time: 0 hr 17 min 48 sec) 
Heartbeat CPU 0 instructions: 290000001 cycles: 74747799 heartbeat IPC: 3.89239 cumulative IPC: 3.87971 (Simulation time: 0 hr 18 min 25 sec) 
Heartbeat CPU 0 instructions: 300000000 cycles: 77305923 heartbeat IPC: 3.90911 cumulative IPC: 3.88069 (Simulation time: 0 hr 19 min 3 sec) 
Heartbeat CPU 0 instructions: 310000003 cycles: 79870912 heartbeat IPC: 3.89865 cumulative IPC: 3.88126 (Simulation time: 0 hr 19 min 40 sec) 
Heartbeat CPU 0 instructions: 320000001 cycles: 82434990 heartbeat IPC: 3.90004 cumulative IPC: 3.88185 (Simulation time: 0 hr 20 min 18 sec) 
Heartbeat CPU 0 instructions: 330000001 cycles: 85008652 heartbeat IPC: 3.88551 cumulative IPC: 3.88196 (Simulation time: 0 hr 20 min 56 sec) 
Heartbeat CPU 0 instructions: 340000002 cycles: 87583881 heartbeat IPC: 3.88315 cumulative IPC: 3.88199 (Simulation time: 0 hr 21 min 33 sec) 
Heartbeat CPU 0 instructions: 350000000 cycles: 90147161 heartbeat IPC: 3.90125 cumulative IPC: 3.88254 (Simulation time: 0 hr 22 min 10 sec) 
Heartbeat CPU 0 instructions: 360000000 cycles: 92713167 heartbeat IPC: 3.89711 cumulative IPC: 3.88294 (Simulation time: 0 hr 22 min 48 sec) 
Heartbeat CPU 0 instructions: 370000001 cycles: 95277805 heartbeat IPC: 3.89919 cumulative IPC: 3.88338 (Simulation time: 0 hr 23 min 26 sec) 
Heartbeat CPU 0 instructions: 380000003 cycles: 97836236 heartbeat IPC: 3.90865 cumulative IPC: 3.88404 (Simulation time: 0 hr 24 min 3 sec) 
Heartbeat CPU 0 instructions: 390000003 cycles: 100393888 heartbeat IPC: 3.90984 cumulative IPC: 3.8847 (Simulation time: 0 hr 24 min 40 sec) 
Heartbeat CPU 0 instructions: 400000003 cycles: 102954528 heartbeat IPC: 3.90527 cumulative IPC: 3.88521 (Simulation time: 0 hr 25 min 16 sec) 
Heartbeat CPU 0 instructions: 410000001 cycles: 105514755 heartbeat IPC: 3.9059 cumulative IPC: 3.88571 (Simulation time: 0 hr 25 min 52 sec) 
Heartbeat CPU 0 instructions: 420000002 cycles: 108070324 heartbeat IPC: 3.91302 cumulative IPC: 3.88636 (Simulation time: 0 hr 26 min 29 sec) 
Heartbeat CPU 0 instructions: 430000001 cycles: 110630737 heartbeat IPC: 3.90562 cumulative IPC: 3.8868 (Simulation time: 0 hr 27 min 6 sec) 
Heartbeat CPU 0 instructions: 440000003 cycles: 113163340 heartbeat IPC: 3.94851 cumulative IPC: 3.88819 (Simulation time: 0 hr 27 min 42 sec) 
Heartbeat CPU 0 instructions: 450000002 cycles: 115711718 heartbeat IPC: 3.92406 cumulative IPC: 3.88898 (Simulation time: 0 hr 28 min 21 sec) 
Heartbeat CPU 0 instructions: 460000003 cycles: 118240280 heartbeat IPC: 3.95482 cumulative IPC: 3.89038 (Simulation time: 0 hr 28 min 57 sec) 
Heartbeat CPU 0 instructions: 470000003 cycles: 120817205 heartbeat IPC: 3.88059 cumulative IPC: 3.89017 (Simulation time: 0 hr 29 min 58 sec) 
Heartbeat CPU 0 instructions: 480000000 cycles: 123389918 heartbeat IPC: 3.88695 cumulative IPC: 3.89011 (Simulation time: 0 hr 30 min 43 sec) 
Heartbeat CPU 0 instructions: 490000000 cycles: 125967418 heartbeat IPC: 3.87973 cumulative IPC: 3.88989 (Simulation time: 0 hr 31 min 21 sec) 
Heartbeat CPU 0 instructions: 500000001 cycles: 128542783 heartbeat IPC: 3.88295 cumulative IPC: 3.88976 (Simulation time: 0 hr 32 min 17 sec) 

Warmup complete CPU 0 instructions: 500000001 cycles: 128542783 (Simulation time: 0 hr 32 min 17 sec) 

Heartbeat CPU 0 instructions: 510000004 cycles: 139312911 heartbeat IPC: 0.928494 cumulative IPC: 0.928494 (Simulation time: 0 hr 32 min 59 sec) 
Heartbeat CPU 0 instructions: 520000000 cycles: 149875975 heartbeat IPC: 0.946695 cumulative IPC: 0.937506 (Simulation time: 0 hr 33 min 36 sec) 
Heartbeat CPU 0 instructions: 530000003 cycles: 160489835 heartbeat IPC: 0.942165 cumulative IPC: 0.939054 (Simulation time: 0 hr 34 min 14 sec) 
Heartbeat CPU 0 instructions: 540000000 cycles: 171119931 heartbeat IPC: 0.940725 cumulative IPC: 0.939471 (Simulation time: 0 hr 34 min 53 sec) 
Heartbeat CPU 0 instructions: 550000003 cycles: 181957212 heartbeat IPC: 0.922741 cumulative IPC: 0.936077 (Simulation time: 0 hr 35 min 32 sec) 
Heartbeat CPU 0 instructions: 560000001 cycles: 192664832 heartbeat IPC: 0.933914 cumulative IPC: 0.935716 (Simulation time: 0 hr 36 min 11 sec) 
Heartbeat CPU 0 instructions: 570000002 cycles: 203242032 heartbeat IPC: 0.94543 cumulative IPC: 0.937091 (Simulation time: 0 hr 36 min 50 sec) 
Heartbeat CPU 0 instructions: 580000000 cycles: 213902585 heartbeat IPC: 0.938037 cumulative IPC: 0.937209 (Simulation time: 0 hr 37 min 28 sec) 
Heartbeat CPU 0 instructions: 590000004 cycles: 224592626 heartbeat IPC: 0.93545 cumulative IPC: 0.937014 (Simulation time: 0 hr 38 min 6 sec) 
Heartbeat CPU 0 instructions: 600000000 cycles: 235377233 heartbeat IPC: 0.927247 cumulative IPC: 0.936028 (Simulation time: 0 hr 38 min 44 sec) 
Heartbeat CPU 0 instructions: 610000000 cycles: 246174461 heartbeat IPC: 0.926164 cumulative IPC: 0.935122 (Simulation time: 0 hr 39 min 21 sec) 
Heartbeat CPU 0 instructions: 620000003 cycles: 256774283 heartbeat IPC: 0.943412 cumulative IPC: 0.935808 (Simulation time: 0 hr 39 min 58 sec) 
Heartbeat CPU 0 instructions: 630000002 cycles: 267490478 heartbeat IPC: 0.933167 cumulative IPC: 0.935604 (Simulation time: 0 hr 40 min 36 sec) 
Heartbeat CPU 0 instructions: 640000003 cycles: 278032987 heartbeat IPC: 0.948541 cumulative IPC: 0.936516 (Simulation time: 0 hr 41 min 13 sec) 
Heartbeat CPU 0 instructions: 650000002 cycles: 288648388 heartbeat IPC: 0.942027 cumulative IPC: 0.936882 (Simulation time: 0 hr 41 min 51 sec) 
Heartbeat CPU 0 instructions: 660000004 cycles: 299739839 heartbeat IPC: 0.901595 cumulative IPC: 0.934596 (Simulation time: 0 hr 42 min 28 sec) 
Heartbeat CPU 0 instructions: 670000003 cycles: 310453714 heartbeat IPC: 0.933369 cumulative IPC: 0.934523 (Simulation time: 0 hr 43 min 6 sec) 
Heartbeat CPU 0 instructions: 680000001 cycles: 321134783 heartbeat IPC: 0.936236 cumulative IPC: 0.934618 (Simulation time: 0 hr 43 min 43 sec) 
Heartbeat CPU 0 instructions: 690000002 cycles: 331836921 heartbeat IPC: 0.934393 cumulative IPC: 0.934606 (Simulation time: 0 hr 44 min 20 sec) 
Heartbeat CPU 0 instructions: 700000002 cycles: 342430876 heartbeat IPC: 0.943935 cumulative IPC: 0.935068 (Simulation time: 0 hr 44 min 57 sec) 
Heartbeat CPU 0 instructions: 710000001 cycles: 353106006 heartbeat IPC: 0.936757 cumulative IPC: 0.935149 (Simulation time: 0 hr 45 min 34 sec) 
Heartbeat CPU 0 instructions: 720000002 cycles: 363820350 heartbeat IPC: 0.933328 cumulative IPC: 0.935066 (Simulation time: 0 hr 46 min 11 sec) 
Heartbeat CPU 0 instructions: 730000000 cycles: 374400345 heartbeat IPC: 0.94518 cumulative IPC: 0.935501 (Simulation time: 0 hr 46 min 49 sec) 
Heartbeat CPU 0 instructions: 740000001 cycles: 385016172 heartbeat IPC: 0.94199 cumulative IPC: 0.93577 (Simulation time: 0 hr 47 min 27 sec) 
Heartbeat CPU 0 instructions: 750000001 cycles: 395718222 heartbeat IPC: 0.9344 cumulative IPC: 0.935715 (Simulation time: 0 hr 48 min 4 sec) 
Heartbeat CPU 0 instructions: 760000001 cycles: 406305993 heartbeat IPC: 0.944486 cumulative IPC: 0.936049 (Simulation time: 0 hr 48 min 41 sec) 
Heartbeat CPU 0 instructions: 770000000 cycles: 416763192 heartbeat IPC: 0.956279 cumulative IPC: 0.936783 (Simulation time: 0 hr 49 min 18 sec) 
Heartbeat CPU 0 instructions: 780000002 cycles: 427373544 heartbeat IPC: 0.942476 cumulative IPC: 0.936985 (Simulation time: 0 hr 49 min 55 sec) 
Heartbeat CPU 0 instructions: 790000000 cycles: 438683261 heartbeat IPC: 0.884195 cumulative IPC: 0.93506 (Simulation time: 0 hr 50 min 33 sec) 
Heartbeat CPU 0 instructions: 800000000 cycles: 450150036 heartbeat IPC: 0.872085 cumulative IPC: 0.932815 (Simulation time: 0 hr 51 min 11 sec) 
Heartbeat CPU 0 instructions: 810000001 cycles: 463221127 heartbeat IPC: 0.765047 cumulative IPC: 0.926262 (Simulation time: 0 hr 51 min 48 sec) 
Heartbeat CPU 0 instructions: 820000001 cycles: 475528860 heartbeat IPC: 0.812497 cumulative IPC: 0.922227 (Simulation time: 0 hr 52 min 25 sec) 
Heartbeat CPU 0 instructions: 830000003 cycles: 487835194 heartbeat IPC: 0.81259 cumulative IPC: 0.918472 (Simulation time: 0 hr 53 min 3 sec) 
Heartbeat CPU 0 instructions: 840000001 cycles: 499949114 heartbeat IPC: 0.825496 cumulative IPC: 0.915439 (Simulation time: 0 hr 53 min 41 sec) 
Heartbeat CPU 0 instructions: 850000003 cycles: 511955402 heartbeat IPC: 0.832897 cumulative IPC: 0.912855 (Simulation time: 0 hr 54 min 18 sec) 
Heartbeat CPU 0 instructions: 860000004 cycles: 523984336 heartbeat IPC: 0.831329 cumulative IPC: 0.910375 (Simulation time: 0 hr 55 min 0 sec) 
Heartbeat CPU 0 instructions: 870000000 cycles: 536058252 heartbeat IPC: 0.828231 cumulative IPC: 0.907941 (Simulation time: 0 hr 55 min 37 sec) 
Heartbeat CPU 0 instructions: 880000000 cycles: 548001125 heartbeat IPC: 0.837319 cumulative IPC: 0.90593 (Simulation time: 0 hr 56 min 14 sec) 
Heartbeat CPU 0 instructions: 890000003 cycles: 560008510 heartbeat IPC: 0.832821 cumulative IPC: 0.903896 (Simulation time: 0 hr 56 min 53 sec) 
Heartbeat CPU 0 instructions: 900000001 cycles: 572004520 heartbeat IPC: 0.83361 cumulative IPC: 0.901994 (Simulation time: 0 hr 57 min 32 sec) 
Heartbeat CPU 0 instructions: 910000003 cycles: 584123461 heartbeat IPC: 0.825155 cumulative IPC: 0.89995 (Simulation time: 0 hr 58 min 26 sec) 
Heartbeat CPU 0 instructions: 920000000 cycles: 596182912 heartbeat IPC: 0.829225 cumulative IPC: 0.898127 (Simulation time: 0 hr 59 min 4 sec) 
Heartbeat CPU 0 instructions: 930000002 cycles: 608208257 heartbeat IPC: 0.831577 cumulative IPC: 0.896458 (Simulation time: 0 hr 59 min 42 sec) 
Heartbeat CPU 0 instructions: 940000004 cycles: 620304960 heartbeat IPC: 0.826672 cumulative IPC: 0.894741 (Simulation time: 1 hr 0 min 20 sec) 
Heartbeat CPU 0 instructions: 950000001 cycles: 632415518 heartbeat IPC: 0.825726 cumulative IPC: 0.893083 (Simulation time: 1 hr 0 min 58 sec) 
Heartbeat CPU 0 instructions: 960000002 cycles: 644451968 heartbeat IPC: 0.83081 cumulative IPC: 0.89163 (Simulation time: 1 hr 1 min 37 sec) 
Heartbeat CPU 0 instructions: 970000002 cycles: 656507910 heartbeat IPC: 0.829467 cumulative IPC: 0.89021 (Simulation time: 1 hr 2 min 14 sec) 
Heartbeat CPU 0 instructions: 980000001 cycles: 668699573 heartbeat IPC: 0.820233 cumulative IPC: 0.888631 (Simulation time: 1 hr 2 min 52 sec) 
Heartbeat CPU 0 instructions: 990000001 cycles: 680727831 heartbeat IPC: 0.831376 cumulative IPC: 0.887384 (Simulation time: 1 hr 3 min 30 sec) 
Heartbeat CPU 0 instructions: 1000000002 cycles: 692818074 heartbeat IPC: 0.827113 cumulative IPC: 0.886092 (Simulation time: 1 hr 4 min 7 sec) 
Heartbeat CPU 0 instructions: 1010000001 cycles: 704639446 heartbeat IPC: 0.845925 cumulative IPC: 0.885268 (Simulation time: 1 hr 4 min 44 sec) 
Heartbeat CPU 0 instructions: 1020000003 cycles: 716407066 heartbeat IPC: 0.84979 cumulative IPC: 0.884558 (Simulation time: 1 hr 5 min 22 sec) 
Heartbeat CPU 0 instructions: 1030000000 cycles: 728286868 heartbeat IPC: 0.841765 cumulative IPC: 0.88371 (Simulation time: 1 hr 5 min 59 sec) 
Heartbeat CPU 0 instructions: 1040000000 cycles: 740170972 heartbeat IPC: 0.84146 cumulative IPC: 0.882889 (Simulation time: 1 hr 6 min 36 sec) 
Heartbeat CPU 0 instructions: 1050000001 cycles: 752217865 heartbeat IPC: 0.83009 cumulative IPC: 0.881869 (Simulation time: 1 hr 7 min 15 sec) 
Heartbeat CPU 0 instructions: 1060000000 cycles: 764217260 heartbeat IPC: 0.833375 cumulative IPC: 0.880954 (Simulation time: 1 hr 8 min 2 sec) 
Heartbeat CPU 0 instructions: 1070000002 cycles: 777063364 heartbeat IPC: 0.778446 cumulative IPC: 0.878924 (Simulation time: 1 hr 8 min 47 sec) 
Heartbeat CPU 0 instructions: 1080000001 cycles: 789440717 heartbeat IPC: 0.807927 cumulative IPC: 0.877594 (Simulation time: 1 hr 9 min 45 sec) 
Heartbeat CPU 0 instructions: 1090000001 cycles: 801041674 heartbeat IPC: 0.861998 cumulative IPC: 0.877325 (Simulation time: 1 hr 11 min 1 sec) 
Heartbeat CPU 0 instructions: 1100000004 cycles: 825590078 heartbeat IPC: 0.407359 cumulative IPC: 0.860774 (Simulation time: 1 hr 14 min 18 sec) 
Heartbeat CPU 0 instructions: 1110000003 cycles: 850636208 heartbeat IPC: 0.399263 cumulative IPC: 0.844766 (Simulation time: 1 hr 17 min 35 sec) 
Heartbeat CPU 0 instructions: 1120000001 cycles: 862154885 heartbeat IPC: 0.868155 cumulative IPC: 0.845133 (Simulation time: 1 hr 18 min 12 sec) 
Heartbeat CPU 0 instructions: 1130000000 cycles: 873870634 heartbeat IPC: 0.853552 cumulative IPC: 0.845266 (Simulation time: 1 hr 18 min 54 sec) 
Heartbeat CPU 0 instructions: 1140000002 cycles: 885875699 heartbeat IPC: 0.832982 cumulative IPC: 0.845071 (Simulation time: 1 hr 19 min 33 sec) 
Heartbeat CPU 0 instructions: 1150000003 cycles: 898064863 heartbeat IPC: 0.820401 cumulative IPC: 0.84468 (Simulation time: 1 hr 20 min 12 sec) 
Heartbeat CPU 0 instructions: 1160000002 cycles: 910112052 heartbeat IPC: 0.830069 cumulative IPC: 0.844455 (Simulation time: 1 hr 21 min 15 sec) 
Heartbeat CPU 0 instructions: 1170000000 cycles: 921726652 heartbeat IPC: 0.860985 cumulative IPC: 0.844697 (Simulation time: 1 hr 22 min 13 sec) 
Heartbeat CPU 0 instructions: 1180000000 cycles: 933246909 heartbeat IPC: 0.868036 cumulative IPC: 0.845031 (Simulation time: 1 hr 22 min 52 sec) 
Heartbeat CPU 0 instructions: 1190000004 cycles: 944669343 heartbeat IPC: 0.875471 cumulative IPC: 0.845457 (Simulation time: 1 hr 23 min 31 sec) 
Heartbeat CPU 0 instructions: 1200000001 cycles: 955825958 heartbeat IPC: 0.896329 cumulative IPC: 0.846143 (Simulation time: 1 hr 24 min 10 sec) 
Heartbeat CPU 0 instructions: 1210000000 cycles: 967550292 heartbeat IPC: 0.852927 cumulative IPC: 0.846238 (Simulation time: 1 hr 24 min 49 sec) 
Heartbeat CPU 0 instructions: 1220000003 cycles: 979037318 heartbeat IPC: 0.870548 cumulative IPC: 0.846566 (Simulation time: 1 hr 25 min 27 sec) 
Heartbeat CPU 0 instructions: 1230000000 cycles: 990744233 heartbeat IPC: 0.854196 cumulative IPC: 0.84667 (Simulation time: 1 hr 26 min 5 sec) 
Heartbeat CPU 0 instructions: 1240000003 cycles: 1002639073 heartbeat IPC: 0.840701 cumulative IPC: 0.846589 (Simulation time: 1 hr 26 min 44 sec) 
Heartbeat CPU 0 instructions: 1250000002 cycles: 1013673675 heartbeat IPC: 0.90624 cumulative IPC: 0.847332 (Simulation time: 1 hr 27 min 23 sec) 
Heartbeat CPU 0 instructions: 1260000004 cycles: 1025814145 heartbeat IPC: 0.823691 cumulative IPC: 0.847012 (Simulation time: 1 hr 28 min 6 sec) 
Heartbeat CPU 0 instructions: 1270000000 cycles: 1037602063 heartbeat IPC: 0.848326 cumulative IPC: 0.847029 (Simulation time: 1 hr 28 min 45 sec) 
Heartbeat CPU 0 instructions: 1280000004 cycles: 1048874023 heartbeat IPC: 0.887157 cumulative IPC: 0.847521 (Simulation time: 1 hr 29 min 23 sec) 
Heartbeat CPU 0 instructions: 1290000003 cycles: 1059851392 heartbeat IPC: 0.910965 cumulative IPC: 0.848269 (Simulation time: 1 hr 30 min 17 sec) 
Heartbeat CPU 0 instructions: 1300000000 cycles: 1070941204 heartbeat IPC: 0.901728 cumulative IPC: 0.848898 (Simulation time: 1 hr 31 min 20 sec) 
Heartbeat CPU 0 instructions: 1310000003 cycles: 1082440885 heartbeat IPC: 0.86959 cumulative IPC: 0.849147 (Simulation time: 1 hr 32 min 16 sec) 
Heartbeat CPU 0 instructions: 1320000000 cycles: 1093773930 heartbeat IPC: 0.882375 cumulative IPC: 0.849537 (Simulation time: 1 hr 32 min 57 sec) 
Heartbeat CPU 0 instructions: 1330000001 cycles: 1104553142 heartbeat IPC: 0.927712 cumulative IPC: 0.850401 (Simulation time: 1 hr 33 min 38 sec) 
Heartbeat CPU 0 instructions: 1340000000 cycles: 1115070658 heartbeat IPC: 0.950795 cumulative IPC: 0.851471 (Simulation time: 1 hr 34 min 17 sec) 
Heartbeat CPU 0 instructions: 1350000000 cycles: 1125564196 heartbeat IPC: 0.952967 cumulative IPC: 0.852539 (Simulation time: 1 hr 34 min 58 sec) 
Heartbeat CPU 0 instructions: 1360000003 cycles: 1136441297 heartbeat IPC: 0.919363 cumulative IPC: 0.853261 (Simulation time: 1 hr 35 min 39 sec) 
Heartbeat CPU 0 instructions: 1370000000 cycles: 1147934323 heartbeat IPC: 0.870093 cumulative IPC: 0.85345 (Simulation time: 1 hr 36 min 20 sec) 
Heartbeat CPU 0 instructions: 1380000004 cycles: 1159382368 heartbeat IPC: 0.873512 cumulative IPC: 0.853673 (Simulation time: 1 hr 37 min 2 sec) 
Heartbeat CPU 0 instructions: 1390000000 cycles: 1172324830 heartbeat IPC: 0.77265 cumulative IPC: 0.852668 (Simulation time: 1 hr 37 min 42 sec) 
Heartbeat CPU 0 instructions: 1400000004 cycles: 1184542981 heartbeat IPC: 0.818455 cumulative IPC: 0.852273 (Simulation time: 1 hr 38 min 21 sec) 
Heartbeat CPU 0 instructions: 1410000000 cycles: 1196966801 heartbeat IPC: 0.804905 cumulative IPC: 0.851722 (Simulation time: 1 hr 39 min 3 sec) 
Heartbeat CPU 0 instructions: 1420000000 cycles: 1208731772 heartbeat IPC: 0.849981 cumulative IPC: 0.851703 (Simulation time: 1 hr 39 min 44 sec) 
Heartbeat CPU 0 instructions: 1430000001 cycles: 1220685692 heartbeat IPC: 0.836546 cumulative IPC: 0.851537 (Simulation time: 1 hr 40 min 31 sec) 
Heartbeat CPU 0 instructions: 1440000002 cycles: 1232573292 heartbeat IPC: 0.841213 cumulative IPC: 0.851426 (Simulation time: 1 hr 41 min 18 sec) 
Heartbeat CPU 0 instructions: 1450000002 cycles: 1244428585 heartbeat IPC: 0.843505 cumulative IPC: 0.851342 (Simulation time: 1 hr 41 min 59 sec) 
Heartbeat CPU 0 instructions: 1460000000 cycles: 1255810014 heartbeat IPC: 0.878624 cumulative IPC: 0.851617 (Simulation time: 1 hr 42 min 38 sec) 
Heartbeat CPU 0 instructions: 1470000000 cycles: 1267821319 heartbeat IPC: 0.832549 cumulative IPC: 0.851416 (Simulation time: 1 hr 43 min 16 sec) 
Heartbeat CPU 0 instructions: 1480000004 cycles: 1279632507 heartbeat IPC: 0.846655 cumulative IPC: 0.851367 (Simulation time: 1 hr 43 min 53 sec) 
Heartbeat CPU 0 instructions: 1490000002 cycles: 1291626853 heartbeat IPC: 0.833726 cumulative IPC: 0.851185 (Simulation time: 1 hr 44 min 31 sec) 
Heartbeat CPU 0 instructions: 1500000001 cycles: 1303379740 heartbeat IPC: 0.850855 cumulative IPC: 0.851182 (Simulation time: 1 hr 45 min 8 sec) 
Heartbeat CPU 0 instructions: 1510000004 cycles: 1315332312 heartbeat IPC: 0.83664 cumulative IPC: 0.851035 (Simulation time: 1 hr 45 min 45 sec) 
Heartbeat CPU 0 instructions: 1520000000 cycles: 1327625619 heartbeat IPC: 0.81345 cumulative IPC: 0.85065 (Simulation time: 1 hr 46 min 25 sec) 
Heartbeat CPU 0 instructions: 1530000001 cycles: 1339672639 heartbeat IPC: 0.830081 cumulative IPC: 0.850446 (Simulation time: 1 hr 47 min 3 sec) 
Heartbeat CPU 0 instructions: 1540000004 cycles: 1351570999 heartbeat IPC: 0.840452 cumulative IPC: 0.850348 (Simulation time: 1 hr 47 min 54 sec) 
Heartbeat CPU 0 instructions: 1550000000 cycles: 1363387853 heartbeat IPC: 0.846249 cumulative IPC: 0.850309 (Simulation time: 1 hr 48 min 38 sec) 
Heartbeat CPU 0 instructions: 1560000002 cycles: 1375385886 heartbeat IPC: 0.83347 cumulative IPC: 0.850147 (Simulation time: 1 hr 49 min 16 sec) 
Heartbeat CPU 0 instructions: 1570000001 cycles: 1387264116 heartbeat IPC: 0.841876 cumulative IPC: 0.850069 (Simulation time: 1 hr 49 min 55 sec) 
Heartbeat CPU 0 instructions: 1580000003 cycles: 1399357329 heartbeat IPC: 0.82691 cumulative IPC: 0.849849 (Simulation time: 1 hr 50 min 34 sec) 
Heartbeat CPU 0 instructions: 1590000004 cycles: 1411304784 heartbeat IPC: 0.836998 cumulative IPC: 0.849729 (Simulation time: 1 hr 51 min 13 sec) 
Heartbeat CPU 0 instructions: 1600000004 cycles: 1423339653 heartbeat IPC: 0.830919 cumulative IPC: 0.849554 (Simulation time: 1 hr 51 min 52 sec) 
Heartbeat CPU 0 instructions: 1610000002 cycles: 1435276825 heartbeat IPC: 0.837719 cumulative IPC: 0.849446 (Simulation time: 1 hr 52 min 30 sec) 
Heartbeat CPU 0 instructions: 1620000002 cycles: 1447230191 heartbeat IPC: 0.836584 cumulative IPC: 0.849329 (Simulation time: 1 hr 53 min 10 sec) 
Heartbeat CPU 0 instructions: 1630000000 cycles: 1459198420 heartbeat IPC: 0.835545 cumulative IPC: 0.849205 (Simulation time: 1 hr 53 min 49 sec) 
Heartbeat CPU 0 instructions: 1640000001 cycles: 1471280301 heartbeat IPC: 0.827686 cumulative IPC: 0.849012 (Simulation time: 1 hr 54 min 32 sec) 
Heartbeat CPU 0 instructions: 1650000001 cycles: 1483275204 heartbeat IPC: 0.833687 cumulative IPC: 0.848876 (Simulation time: 1 hr 55 min 14 sec) 
Heartbeat CPU 0 instructions: 1660000000 cycles: 1495439889 heartbeat IPC: 0.822052 cumulative IPC: 0.848637 (Simulation time: 1 hr 55 min 57 sec) 
Heartbeat CPU 0 instructions: 1670000003 cycles: 1507544854 heartbeat IPC: 0.826108 cumulative IPC: 0.84844 (Simulation time: 1 hr 56 min 35 sec) 
Heartbeat CPU 0 instructions: 1680000000 cycles: 1519920143 heartbeat IPC: 0.808062 cumulative IPC: 0.848081 (Simulation time: 1 hr 57 min 13 sec) 
Heartbeat CPU 0 instructions: 1690000000 cycles: 1531982792 heartbeat IPC: 0.829005 cumulative IPC: 0.847917 (Simulation time: 1 hr 57 min 51 sec) 
Heartbeat CPU 0 instructions: 1700000002 cycles: 1543974529 heartbeat IPC: 0.833908 cumulative IPC: 0.847798 (Simulation time: 1 hr 58 min 29 sec) 
Heartbeat CPU 0 instructions: 1710000000 cycles: 1556030789 heartbeat IPC: 0.829444 cumulative IPC: 0.847643 (Simulation time: 1 hr 59 min 7 sec) 
Heartbeat CPU 0 instructions: 1720000000 cycles: 1567967362 heartbeat IPC: 0.837761 cumulative IPC: 0.847561 (Simulation time: 1 hr 59 min 44 sec) 
Heartbeat CPU 0 instructions: 1730000002 cycles: 1579899928 heartbeat IPC: 0.838043 cumulative IPC: 0.847483 (Simulation time: 2 hr 0 min 21 sec) 
Heartbeat CPU 0 instructions: 1740000002 cycles: 1592795784 heartbeat IPC: 0.775443 cumulative IPC: 0.846848 (Simulation time: 2 hr 2 min 3 sec) 
Heartbeat CPU 0 instructions: 1750000002 cycles: 1618605415 heartbeat IPC: 0.387452 cumulative IPC: 0.838891 (Simulation time: 2 hr 5 min 49 sec) 
Heartbeat CPU 0 instructions: 1760000001 cycles: 1641112730 heartbeat IPC: 0.4443 cumulative IPC: 0.833019 (Simulation time: 2 hr 8 min 14 sec) 
Heartbeat CPU 0 instructions: 1770000003 cycles: 1652817586 heartbeat IPC: 0.854346 cumulative IPC: 0.833183 (Simulation time: 2 hr 8 min 50 sec) 
Heartbeat CPU 0 instructions: 1780000001 cycles: 1664573860 heartbeat IPC: 0.850609 cumulative IPC: 0.833316 (Simulation time: 2 hr 9 min 30 sec) 
Heartbeat CPU 0 instructions: 1790000001 cycles: 1676095769 heartbeat IPC: 0.867912 cumulative IPC: 0.833574 (Simulation time: 2 hr 10 min 13 sec) 
Heartbeat CPU 0 instructions: 1800000001 cycles: 1688407035 heartbeat IPC: 0.812264 cumulative IPC: 0.833406 (Simulation time: 2 hr 11 min 2 sec) 
Heartbeat CPU 0 instructions: 1810000004 cycles: 1700692311 heartbeat IPC: 0.813983 cumulative IPC: 0.833254 (Simulation time: 2 hr 12 min 6 sec) 
Heartbeat CPU 0 instructions: 1820000001 cycles: 1712648203 heartbeat IPC: 0.836407 cumulative IPC: 0.833278 (Simulation time: 2 hr 12 min 43 sec) 
Heartbeat CPU 0 instructions: 1830000000 cycles: 1724436491 heartbeat IPC: 0.8483 cumulative IPC: 0.833389 (Simulation time: 2 hr 13 min 23 sec) 
Heartbeat CPU 0 instructions: 1840000003 cycles: 1736066106 heartbeat IPC: 0.859874 cumulative IPC: 0.83358 (Simulation time: 2 hr 14 min 24 sec) 
Heartbeat CPU 0 instructions: 1850000003 cycles: 1747428401 heartbeat IPC: 0.880104 cumulative IPC: 0.833907 (Simulation time: 2 hr 15 min 2 sec) 
Heartbeat CPU 0 instructions: 1860000004 cycles: 1759332886 heartbeat IPC: 0.84002 cumulative IPC: 0.833952 (Simulation time: 2 hr 15 min 41 sec) 
Heartbeat CPU 0 instructions: 1870000004 cycles: 1770797676 heartbeat IPC: 0.872236 cumulative IPC: 0.834219 (Simulation time: 2 hr 16 min 20 sec) 
Heartbeat CPU 0 instructions: 1880000001 cycles: 1782516049 heartbeat IPC: 0.853361 cumulative IPC: 0.834354 (Simulation time: 2 hr 16 min 59 sec) 
Heartbeat CPU 0 instructions: 1890000000 cycles: 1794117478 heartbeat IPC: 0.861963 cumulative IPC: 0.834547 (Simulation time: 2 hr 17 min 41 sec) 
Heartbeat CPU 0 instructions: 1900000003 cycles: 1805990188 heartbeat IPC: 0.842268 cumulative IPC: 0.834601 (Simulation time: 2 hr 18 min 29 sec) 
Heartbeat CPU 0 instructions: 1910000002 cycles: 1817327846 heartbeat IPC: 0.882016 cumulative IPC: 0.83492 (Simulation time: 2 hr 19 min 18 sec) 
Heartbeat CPU 0 instructions: 1920000000 cycles: 1828531968 heartbeat IPC: 0.892528 cumulative IPC: 0.835299 (Simulation time: 2 hr 19 min 56 sec) 
Heartbeat CPU 0 instructions: 1930000001 cycles: 1839668518 heartbeat IPC: 0.897944 cumulative IPC: 0.835707 (Simulation time: 2 hr 20 min 33 sec) 
Heartbeat CPU 0 instructions: 1940000004 cycles: 1850752578 heartbeat IPC: 0.902197 cumulative IPC: 0.836135 (Simulation time: 2 hr 21 min 11 sec) 
Heartbeat CPU 0 instructions: 1950000004 cycles: 1861850141 heartbeat IPC: 0.901099 cumulative IPC: 0.836551 (Simulation time: 2 hr 21 min 49 sec) 
Heartbeat CPU 0 instructions: 1960000004 cycles: 1873213612 heartbeat IPC: 0.880013 cumulative IPC: 0.836834 (Simulation time: 2 hr 22 min 25 sec) 
Heartbeat CPU 0 instructions: 1970000002 cycles: 1884729292 heartbeat IPC: 0.868381 cumulative IPC: 0.837041 (Simulation time: 2 hr 23 min 23 sec) 
Heartbeat CPU 0 instructions: 1980000000 cycles: 1896128153 heartbeat IPC: 0.87728 cumulative IPC: 0.8373 (Simulation time: 2 hr 24 min 31 sec) 
Heartbeat CPU 0 instructions: 1990000003 cycles: 1907367751 heartbeat IPC: 0.889712 cumulative IPC: 0.837632 (Simulation time: 2 hr 25 min 38 sec) 
*** Reached end of trace: traces/445.gobmk-17B.champsimtrace.xz
Heartbeat CPU 0 instructions: 2000000001 cycles: 1918143353 heartbeat IPC: 0.928022 cumulative IPC: 0.838176 (Simulation time: 2 hr 26 min 26 sec) 
Finished CPU 0 instructions: 1500000000 cycles: 1789600570 cumulative IPC: 0.838176 (Simulation time: 2 hr 26 min 26 sec) 

ChampSim completed all CPUs

Region of Interest Statistics

CPU 0 cumulative IPC: 0.838176 instructions: 1500000000 cycles: 1789600570
cpu0_DTLB TOTAL     ACCESS:  348774490  HIT:  348261478  MISS:     513012
cpu0_DTLB LOAD      ACCESS:  230904180  HIT:  230495062  MISS:     409118
cpu0_DTLB RFO       ACCESS:  117870310  HIT:  117766416  MISS:     103894
cpu0_DTLB PREFETCH  ACCESS:          0  HIT:          0  MISS:          0
cpu0_DTLB WRITEBACK ACCESS:          0  HIT:          0  MISS:          0
cpu0_DTLB TRANSLATION ACCESS:          0  HIT:          0  MISS:          0
cpu0_DTLB PREFETCH  REQUESTED:          0  ISSUED:          0  USEFUL:          0  USELESS:          0
cpu0_DTLB AVERAGE MISS LATENCY: 11.842 cycles
cpu0_ITLB TOTAL     ACCESS:  131636711  HIT:  131633131  MISS:       3580
cpu0_ITLB LOAD      ACCESS:  131636711  HIT:  131633131  MISS:       3580
cpu0_ITLB RFO       ACCESS:          0  HIT:          0  MISS:          0
cpu0_ITLB PREFETCH  ACCESS:          0  HIT:          0  MISS:          0
cpu0_ITLB WRITEBACK ACCESS:          0  HIT:          0  MISS:          0
cpu0_ITLB TRANSLATION ACCESS:          0  HIT:          0  MISS:          0
cpu0_ITLB PREFETCH  REQUESTED:          0  ISSUED:          0  USEFUL:          0  USELESS:          0
cpu0_ITLB AVERAGE MISS LATENCY: 17.9785 cycles
cpu0_L1I TOTAL     ACCESS:  145983048  HIT:  141349784  MISS:    4633264
cpu0_L1I LOAD      ACCESS:  145983048  HIT:  141349784  MISS:    4633264
cpu0_L1I RFO       ACCESS:          0  HIT:          0  MISS:          0
cpu0_L1I PREFETCH  ACCESS:          0  HIT:          0  MISS:          0
cpu0_L1I WRITEBACK ACCESS:          0  HIT:          0  MISS:          0
cpu0_L1I TRANSLATION ACCESS:          0  HIT:          0  MISS:          0
cpu0_L1I PREFETCH  REQUESTED:          0  ISSUED:          0  USEFUL:          0  USELESS:          0
cpu0_L1I AVERAGE MISS LATENCY: 11.8697 cycles
cpu0_STLB TOTAL     ACCESS:     516592  HIT:     467815  MISS:      48777
cpu0_STLB LOAD      ACCESS:     412698  HIT:     387547  MISS:      25151
cpu0_STLB RFO       ACCESS:     103894  HIT:      80268  MISS:      23626
cpu0_STLB PREFETCH  ACCESS:          0  HIT:          0  MISS:          0
cpu0_STLB WRITEBACK ACCESS:          0  HIT:          0  MISS:          0
cpu0_STLB TRANSLATION ACCESS:          0  HIT:          0  MISS:          0
cpu0_STLB PREFETCH  REQUESTED:          0  ISSUED:          0  USEFUL:          0  USELESS:          0
cpu0_STLB AVERAGE MISS LATENCY: 30.5109 cycles
cpu0_L1D TOTAL     ACCESS:  433301873  HIT:  428745303  MISS:    4556570
cpu0_L1D LOAD      ACCESS:  224523650  HIT:  222642523  MISS:    1881127
cpu0_L1D RFO       ACCESS:  208729619  HIT:  206058448  MISS:    2671171
cpu0_L1D PREFETCH  ACCESS:          0  HIT:          0  MISS:          0
cpu0_L1D WRITEBACK ACCESS:          0  HIT:          0  MISS:          0
cpu0_L1D TRANSLATION ACCESS:      48604  HIT:      44332  MISS:       4272
cpu0_L1D PREFETCH  REQUESTED:          0  ISSUED:          0  USEFUL:          0  USELESS:          0
cpu0_L1D AVERAGE MISS LATENCY: 365.818 cycles
cpu0_L2C TOTAL     ACCESS:   12306439  HIT:   10252293  MISS:    2054146
cpu0_L2C LOAD      ACCESS:    6514362  HIT:    6020243  MISS:     494119
cpu0_L2C RFO       ACCESS:    2671132  HIT:    1112709  MISS:    1558423
cpu0_L2C PREFETCH  ACCESS:          0  HIT:          0  MISS:          0
cpu0_L2C WRITEBACK ACCESS:    3116673  HIT:    3115239  MISS:       1434
cpu0_L2C TRANSLATION ACCESS:       4272  HIT:       4102  MISS:        170
cpu0_L2C PREFETCH  REQUESTED:          0  ISSUED:          0  USEFUL:          0  USELESS:          0
cpu0_L2C AVERAGE MISS LATENCY: 788.941 cycles
LLC TOTAL     ACCESS:    3874960  HIT:    2077162  MISS:    1797798
LLC LOAD      ACCESS:     494119  HIT:     206932  MISS:     287187
LLC RFO       ACCESS:    1558423  HIT:      51477  MISS:    1506946
LLC PREFETCH  ACCESS:          0  HIT:          0  MISS:          0
LLC WRITEBACK ACCESS:    1822248  HIT:    1818625  MISS:       3623
LLC TRANSLATION ACCESS:        170  HIT:        128  MISS:         42
LLC PREFETCH  REQUESTED:          0  ISSUED:          0  USEFUL:          0  USELESS:          0
LLC AVERAGE MISS LATENCY: 877.458 cycles
~~~~~~~~~~Reuse Distance Profiler output~~~~~~~~~~
0	138321600	22160560
1	52326720	23642160
2	33208528	20353904
3	27601392	16630288
4	32265664	12741536
5	16669072	10389872
6	13132320	8199088
7	10699792	6617712
8	9013072	5793968
9	8379088	5559664
10	7180960	4323392
11	6046656	3998528
12	5263616	3415264
13	5386752	3422608
14	4887296	3148016
15	4769648	3182944
16	5172512	2988352
17	4194112	2780352
18	3681920	2507488
19	3602176	2423008
20	3367408	2329536
21	3090880	2113456
22	2911104	2043904
23	2757792	1968576
24	2622048	1892048
25	2524512	1805696
26	2420304	1757792
27	2307888	1697376
28	2155520	1595712
29	2481072	1607360
30	2117232	1518736
31	1983312	1387872
32	1851248	1257856
33	1855504	1295472
34	1698768	1186320
35	1710624	1200176
36	1660112	1120160
37	1610032	1073072
38	1572144	1019600
39	1756640	1154912
40	1495392	949264
41	1424208	933280
42	1358400	901648
43	1371328	913696
44	1306464	883664
45	1227792	838320
46	1220368	854976
47	1169024	814944
48	1151952	839056
49	1134080	836704
50	1137072	834496
51	1118864	822368
52	1081792	813936
53	1071088	790336
54	1041232	774160
55	1029968	773600
56	972928	725392
57	985008	744528
58	951920	710560
59	916864	686976
60	889744	660720
61	830992	609760
62	814032	583216
63	780384	550976
64	1526784	1071120
66	1428848	975328
68	1342448	901440
70	1301360	854400
72	1267824	828032
74	1239168	810912
76	1184080	769776
78	1153088	748544
80	1105680	720336
82	1079904	697184
84	1052224	686624
86	1032016	680448
88	973856	641744
90	939552	608928
92	901008	572592
94	876704	542688
96	849936	522112
98	806592	475408
100	790592	467856
102	783584	454944
104	774256	430544
106	766064	416576
108	732608	388832
110	736976	399328
112	732320	398752
114	727392	406400
116	696208	413280
118	688496	414816
120	660864	400528
122	628912	390048
124	598400	380400
126	563664	356688
128	1060832	691728
132	999344	675584
136	940480	677008
140	912752	677472
144	862736	659264
148	841488	653488
152	830640	623040
156	794528	591424
160	758768	560640
164	743664	555728
168	718544	532880
172	693040	511504
176	690032	509936
180	674736	507440
184	646256	482384
188	619760	458160
192	625760	470736
196	598144	454928
200	580176	440656
204	572800	433184
208	572272	443824
212	570960	438576
216	553712	428176
220	547744	419088
224	529392	400160
228	523072	393952
232	503504	377120
236	485264	362192
240	471856	344192
244	472560	341376
248	467264	330960
252	451600	320896
256	859696	612656
264	795456	558208
272	818368	559760
280	808368	545488
288	757168	506528
296	713712	497184
304	704064	499696
312	688864	486816
320	668144	464288
328	637120	449920
336	634992	449360
344	593120	415184
352	567280	402640
360	572240	396704
368	563232	393696
376	552304	388880
384	538912	378784
392	529904	376944
400	507264	363792
408	475648	342656
416	464752	328816
424	442784	311296
432	435424	301648
440	421200	300464
448	420320	296656
456	405088	286192
464	398352	278816
472	399792	276592
480	390016	273840
488	381248	268528
496	358736	248688
504	367920	254336
512	751776	511600
528	730928	485104
544	694608	464544
560	637968	430592
576	640448	432848
592	590080	393280
608	552576	366720
624	506592	339712
640	458848	308688
656	422800	286512
672	413008	274992
688	415344	279104
704	404096	277200
720	390768	259312
736	386816	257632
752	395824	265680
768	377744	253648
784	378448	243968
800	353856	233952
816	340656	226816
832	334032	227408
848	330480	220832
864	326976	214816
880	311072	203200
896	301200	198800
912	301888	199696
928	295680	192496
944	289744	193712
960	283136	187904
976	293568	195936
992	271504	179008
1008	266304	178192
1024	531152	351760
1056	513936	341952
1088	505792	339072
1120	497136	332400
1152	481312	315104
1184	485008	319488
1216	463456	302864
1248	454176	293360
1280	424656	270704
1312	413088	262032
1344	408192	248368
1376	390368	245792
1408	375344	231808
1440	366112	224800
1472	334864	201536
1504	330768	196160
1536	322144	193200
1568	306160	180656
1600	298608	177264
1632	283680	169200
1664	265280	162096
1696	261056	155296
1728	265184	160304
1760	261776	161264
1792	256992	152112
1824	241664	144016
1856	227808	127184
1888	223216	130592
1920	227072	126816
1952	211440	121584
1984	209808	115968
2016	206848	112928
2048	402448	221472
2112	388800	214800
2176	376992	200816
2240	346848	185808
2304	329584	176512
2368	320736	172480
2432	300096	163920
2496	276624	142672
2560	277856	149888
2624	277776	149280
2688	247536	126816
2752	223808	119312
2816	218256	114240
2880	213232	106000
2944	201344	100960
3008	190784	91488
3072	172800	86576
3136	163472	83056
3200	158944	79104
3264	146992	72416
3328	142864	74976
3392	138432	66672
3456	137280	68112
3520	134544	68704
3584	133248	66576
3648	132784	65296
3712	128720	61488
3776	134320	64960
3840	134160	60864
3904	115328	54960
3968	109088	51904
4032	118288	60832
4096	229936	111792
4224	218592	98944
4352	219296	95808
4480	197296	89952
4608	176240	82512
4736	174400	78656
4864	166784	76080
4992	150672	68816
5120	155440	66608
5248	224432	142336
5376	205152	129152
5504	165936	84176
5632	158992	72144
5760	144176	68736
5888	161760	73808
6016	154736	65888
6144	139568	63936
6272	146480	70752
6400	135424	59840
6528	125232	64704
6656	112480	52720
6784	110464	58208
6912	105312	53488
7040	98144	48224
7168	92352	44816
7296	90432	43600
7424	92368	40912
7552	88464	43344
7680	93200	51168
7808	80832	39120
7936	77760	37712
8064	79408	40256
8192	162240	80144
8448	165152	85984
8704	148704	77488
8960	137680	73120
9216	114752	54896
9472	114032	57696
9728	111984	57424
9984	102384	48720
10240	96768	45472
10496	91280	46224
10752	85200	41552
11008	81760	39120
11264	84656	44000
11520	83440	45616
11776	78848	38528
12032	72576	33392
12288	72224	36544
12544	76608	40080
12800	76400	38992
13056	63616	31088
13312	60832	28944
13568	57952	28032
13824	54176	25776
14080	54672	25456
14336	54656	27008
14592	49968	21616
14848	53216	25248
15104	53488	26512
15360	45120	20896
15616	47408	22992
15872	51008	25824
16128	43440	20768
16384	87520	42048
16896	85616	40448
17408	84976	41248
17920	69216	31936
18432	74592	38384
18944	64224	31184
19456	65456	32960
19968	60448	29600
20480	59312	26528
20992	56160	26288
21504	75744	45952
22016	51328	24160
22528	51344	24000
23040	59600	34368
23552	52016	26208
24064	45632	21456
24576	44720	21136
25088	62144	38592
25600	42272	17808
26112	41312	17072
26624	39632	16160
27136	44896	20832
27648	39648	17072
28160	39408	17264
28672	41024	19456
29184	36144	17008
29696	37280	17888
30208	39136	19728
30720	35056	16064
31232	37728	19648
31744	37216	18032
32256	37248	17584
32768	65424	30928
33792	68592	33264
34816	64528	31440
35840	60480	28096
36864	60816	28048
37888	62816	33024
38912	54736	25504
39936	53104	24672
40960	52384	24752
41984	52208	23088
43008	52192	25152
44032	49696	22720
45056	54240	27312
46080	49888	24624
47104	48960	23600
48128	45696	23360
49152	47472	24128
50176	39424	17472
51200	42560	22064
52224	40080	21168
53248	44096	24864
54272	40704	19920
55296	38928	19216
56320	42448	22688
57344	46656	25456
58368	38672	19824
59392	35200	17920
60416	34048	16720
61440	40800	21968
62464	33232	16016
63488	32368	14880
64512	30944	15040
65536	68064	33520
67584	72016	39040
69632	65584	31776
71680	63552	28880
73728	63328	31136
75776	62480	29920
77824	52224	22368
79872	49984	20496
81920	51568	22624
83968	48576	18560
86016	44016	17472
88064	42256	19120
90112	39760	14304
92160	34880	12240
94208	33856	11520
96256	36944	17248
98304	35296	16752
100352	34432	15520
102400	27488	9248
104448	25456	9808
106496	26608	10656
108544	24976	9728
110592	23264	8464
112640	36528	22176
114688	21488	8768
116736	20944	8336
118784	22512	9840
120832	20784	9168
122880	17536	6000
124928	18672	8432
126976	18240	7056
129024	15648	6160
131072	34176	11232
135168	32656	12816
139264	33728	14560
143360	34224	17984
147456	27088	10944
151552	23536	8976
155648	36544	21040
159744	27792	12704
163840	26256	13280
167936	20624	7744
172032	20112	8048
176128	24768	12400
180224	19568	8448
184320	16560	6784
188416	16576	7648
192512	12592	5232
196608	13376	4496
200704	12368	4864
204800	12816	5568
208896	11520	4560
212992	13104	7008
217088	11088	4480
221184	9696	3632
225280	10736	4288
229376	8960	3440
233472	8544	2880
237568	8864	3680
241664	9824	4512
245760	9072	3712
249856	7952	3232
253952	9168	4400
258048	8400	4608
262144	14768	6352
270336	11520	3936
278528	13424	5952
286720	13840	6432
294912	13168	7520
303104	12656	5984
311296	14320	7920
319488	14848	8448
327680	10704	6224
335872	12752	6864
344064	11712	6560
352256	8048	3664
360448	10592	5856
368640	9904	4480
376832	10384	5744
385024	15328	10352
393216	11024	7232
401408	8576	4784
409600	8688	4368
417792	11408	7776
425984	7440	3920
434176	6784	3552
442368	5200	2176
450560	5232	2208
458752	5856	2928
466944	5040	2832
475136	4384	2048
483328	5616	2880
491520	10720	8336
499712	5920	3680
507904	5488	2752
516096	6928	4592
524288	16864	12144
540672	12160	7984
557056	11728	6784
573440	9488	5440
589824	8032	4032
606208	10320	5952
622592	8928	5408
638976	7472	3968
655360	7296	3856
671744	7392	4400
688128	6160	3520
704512	7040	4800
720896	5456	2960
737280	5328	2976
753664	5392	2976
770048	4864	2784
786432	5760	3520
802816	5664	3104
819200	4096	2464
835584	3296	1664
851968	3088	1296
868352	4480	2336
884736	3120	1664
901120	3104	1472
917504	3984	2480
933888	4704	2720
950272	3104	1664
966656	756272	2128
983040	2352	1200
999424	2672	1344
1015808	3584	1984
1032192	2752	1856
1048576	7376	4976
1081344	7600	5680
1114112	5808	3888
1146880	5280	3392
1179648	4544	2688
1212416	5568	3872
1245184	5520	3488
1277952	7168	5104
1310720	2784	1344
1343488	8000	6288
1376256	2736	1152
1409024	3744	2544
1441792	3520	1920
1474560	3040	1824
1507328	4384	3312
1540096	2624	1600
1572864	2944	1440
1605632	4224	3056
1638400	3904	2272
1671168	4976	3280
1703936	4464	3440
1736704	4416	3088
1769472	3904	2848
1802240	2736	1856
1835008	7216	6000
1867776	2192	1200
1900544	5472	3904
1933312	3264	2368
1966080	1472	832
1998848	2368	1456
2031616	4608	2880
2064384	3648	2288
2097152	6608	4320
2162688	13568	11088
2228224	6752	4880
2293760	7216	5904
2359296	4928	3136
2424832	2992	1600
2490368	4976	3792
2555904	5696	4368
2621440	9696	8544
2686976	2688	1984
2752512	5584	4704
2818048	2928	2224
2883584	1664	1088
2949120	2752	1728
3014656	2208	1360
3080192	2464	1408
3145728	2496	1696
3211264	3120	2016
3276800	2672	1872
3342336	6928	5984
3407872	1520	688
3473408	3792	2640
3538944	5584	3904
3604480	4752	3440
3670016	7552	6400
3735552	5568	4704
3801088	1600	912
3866624	2784	2064
3932160	1648	1152
3997696	2720	2064
4063232	3712	2832
4128768	656	336
4194304	3568	2528
4325376	1776	944
4456448	2640	1696
4587520	3472	2224
4718592	3952	2544
4849664	5008	3664
4980736	2288	1136
5111808	2352	1808
5242880	2288	1536
5373952	2400	1824
5505024	1376	496
5636096	1568	1072
5767168	1024	368
5898240	1280	608
6029312	1552	896
6160384	1424	768
6291456	880	384
6422528	1664	1008
6553600	1184	640
6684672	1216	480
6815744	1184	560
6946816	1008	576
7077888	1072	512
7208960	816	480
7340032	1024	528
7471104	1488	656
7602176	1008	608
7733248	784	416
7864320	1056	560
7995392	992	528
8126464	1088	528
8257536	1056	784
8388608	1664	1120
8650752	1696	1008
8912896	1776	848
9175040	2032	1024
9437184	1936	1088
9699328	1904	896
9961472	1712	720
10223616	1360	688
10485760	1520	800
10747904	1936	1360
11010048	1744	1072
11272192	3744	3232
11534336	1632	1120
11796480	2512	1664
12058624	1952	1264
12320768	1680	1120
12582912	1840	1168
12845056	1456	832
13107200	4016	3232
13369344	1792	1168
13631488	1968	1424
13893632	1456	832
14155776	1696	928
14417920	1728	1120
14680064	1456	880
14942208	1088	640
15204352	1296	688
15466496	1440	704
15728640	1248	640
15990784	1392	768
16252928	1376	576
16515072	1360	544
16777216	2592	1552
17301504	2208	1504
17825792	2592	1632
18350080	2576	1280
18874368	2304	1072
19398656	2336	1360
19922944	2544	1312
20447232	2672	1536
20971520	2800	1536
21495808	2528	1728
22020096	2320	1248
22544384	2016	1152
23068672	1712	896
23592960	1824	768
24117248	2480	1344
24641536	1792	768
25165824	1712	752
25690112	2832	1632
26214400	2016	1008
26738688	2112	1008
27262976	1728	624
27787264	2224	1152
28311552	3440	2080
28835840	3408	2096
29360128	3088	2144
29884416	2352	1264
30408704	2336	1040
30932992	2096	848
31457280	1744	800
31981568	1424	768
32505856	1488	816
33030144	1440	656
33554432	5120	3136
34603008	4160	2256
35651584	4944	2896
36700160	4144	2224
37748736	3952	2192
38797312	4736	2416
39845888	3568	1616
40894464	3488	1648
41943040	4752	2480
42991616	5376	3072
44040192	2512	1088
45088768	6208	4016
46137344	3808	1680
47185920	5472	2608
48234496	5248	3696
49283072	3664	1584
50331648	3216	1360
51380224	3584	2016
52428800	2000	864
53477376	2576	880
54525952	2016	720
55574528	2880	1072
56623104	2736	1232
57671680	3984	2048
58720256	2624	1056
59768832	2720	1200
60817408	3088	1520
61865984	2944	1040
62914560	2320	656
63963136	2096	544
65011712	2576	736
66060288	2496	656
67108864	4544	1472
69206016	3440	896
71303168	3872	784
73400320	4304	1088
75497472	3744	1168
77594624	3216	1552
79691776	4320	1488
81788928	3984	1424
83886080	3840	1296
85983232	3392	1248
88080384	3232	1936
90177536	2448	944
92274688	2656	1168
94371840	1920	1200
96468992	3760	2320
98566144	2656	1488
100663296	3328	2384
102760448	3360	2736
104857600	2192	1472
106954752	2288	1920
109051904	2096	1696
111149056	1904	1600
113246208	3616	2912
115343360	2224	1680
117440512	2544	1728
119537664	2704	1504
121634816	2864	1728
123731968	4448	3888
125829120	4352	3936
127926272	2480	1792
130023424	1968	1280
132120576	2000	1280
134217728	5440	3024
138412032	5280	3296
142606336	5632	2944
146800640	4416	2480
150994944	5312	2992
155189248	4960	2848
159383552	8400	6144
163577856	8496	7104
167772160	5168	2528
171966464	4240	2256
176160768	2816	1360
180355072	267648	688
184549376	672	352
188743680	3024	208
192937984	2512	224
197132288	1120	64
201326592	592	96
205520896	320	80
209715200	240	48
213909504	720	32
218103808	448	16
222298112	272	80
226492416	240	144
230686720	224	160
234881024	528	384
239075328	240	160
243269632	256	176
247463936	224	128
251658240	240	96
255852544	224	160
260046848	368	160
264241152	208	64
268435456	560	256
276824064	288	128
285212672	320	224
293601280	336	192
301989888	320	144
310378496	2160	96
318767104	2288	0
327155712	0	0
335544320	0	0
343932928	0	0
352321536	16	16
360710144	16	16
369098752	0	0
377487360	0	0
385875968	0	0
394264576	0	0
402653184	0	0
411041792	0	0
419430400	0	0
427819008	0	0
436207616	0	0
444596224	0	0
452984832	0	0
461373440	0	0
469762048	0	0
478150656	0	0
486539264	0	0
494927872	0	0
503316480	0	0
511705088	0	0
520093696	0	0
528482304	0	0
536870912	0	0
553648128	0	0
570425344	0	0
587202560	0	0
603979776	0	0
620756992	0	0
637534208	0	0
654311424	0	0
671088640	0	0
687865856	0	0
704643072	0	0
721420288	0	0
738197504	0	0
754974720	0	0
771751936	0	0
788529152	0	0
805306368	0	0
822083584	0	0
838860800	0	0
855638016	0	0
872415232	0	0
889192448	0	0
905969664	0	0
922746880	0	0
939524096	0	0
956301312	0	0
973078528	0	0
989855744	0	0
1006632960	0	0
1023410176	0	0
1040187392	0	0
1056964608	0	0
1073741824	0	0
1107296256	0	0
1140850688	0	0
1174405120	0	0
1207959552	0	0
1241513984	0	0
1275068416	0	0
1308622848	0	0
1342177280	0	0
1375731712	0	0
1409286144	0	0
1442840576	0	0
1476395008	0	0
1509949440	0	0
1543503872	0	0
1577058304	0	0
1610612736	0	0
1644167168	0	0
1677721600	0	0
1711276032	0	0
1744830464	0	0
1778384896	0	0
1811939328	0	0
1845493760	0	0
1879048192	0	0
1912602624	0	0
1946157056	0	0
1979711488	0	0
2013265920	0	0
2046820352	0	0
2080374784	0	0
2113929216	0	0
2147483648	0	0
2214592512	0	0
2281701376	0	0
2348810240	0	0
2415919104	0	0
2483027968	0	0
2550136832	0	0
2617245696	0	0
2684354560	0	0
2751463424	0	0
2818572288	0	0
2885681152	0	0
2952790016	0	0
3019898880	0	0
3087007744	0	0
3154116608	0	0
3221225472	0	0
3288334336	0	0
3355443200	0	0
3422552064	0	0
3489660928	0	0
3556769792	0	0
3623878656	0	0
3690987520	0	0
3758096384	0	0
3825205248	0	0
3892314112	0	0
3959422976	0	0
4026531840	0	0
4093640704	0	0
4160749568	0	0
4227858432	0	0
~~~~~~~~~~Reuse Distance Profiler output end~~~~~~~~~~

DRAM Statistics
 CHANNEL 0
 RQ ROW_BUFFER_HIT:     310614  ROW_BUFFER_MISS:    1483546
 DBUS AVG_CONGESTED_CYCLE:    3.98432
 WQ ROW_BUFFER_HIT:     318525  ROW_BUFFER_MISS:    1398289  FULL:          0


CPU 0 Branch Prediction Accuracy: 85.6365% MPKI: 26.3767 Average ROB Occupancy at Mispredict: 13.686
Branch type MPKI
BRANCH_DIRECT_JUMP: 0.001128
BRANCH_INDIRECT: 0.000162
BRANCH_CONDITIONAL: 26.3615
BRANCH_DIRECT_CALL: 0.00210933
BRANCH_INDIRECT_CALL: 0.00696067
BRANCH_RETURN: 0.004902

