
*** ChampSim Multicore Out-of-Order Simulator ***

Warmup Instructions: 500000000
Simulation Instructions: 1500000000
Number of CPUs: 1
Off-chip DRAM Size: 4 GiB Channels: 1 Width: 64-bit Data Rate: 3200 MT/s

VirtualMemory physical capacity: 8588881920 num_ppages: 2096895
VirtualMemory page size: 4096 log2_page_size: 12

CPU 0 runs traces/445.gobmk-36B.champsimtrace.xz
CPU 0 Bimodal branch predictor
Basic BTB sets: 1024 ways: 8 indirect buffer size: 4096 RAS size: 64
Initializing LRU.
Initializing LRU.
Initializing LRU.
Initializing LRU.
Initializing rdLRU.
Initializing LRU.
Initializing LRU.
Heartbeat CPU 0 instructions: 10000004 cycles: 2524381 heartbeat IPC: 3.96137 cumulative IPC: 3.96137 (Simulation time: 0 hr 0 min 34 sec) 
Heartbeat CPU 0 instructions: 20000000 cycles: 5068919 heartbeat IPC: 3.92999 cumulative IPC: 3.94561 (Simulation time: 0 hr 1 min 8 sec) 
Heartbeat CPU 0 instructions: 30000003 cycles: 7616080 heartbeat IPC: 3.92594 cumulative IPC: 3.93903 (Simulation time: 0 hr 1 min 43 sec) 
Heartbeat CPU 0 instructions: 40000002 cycles: 10159436 heartbeat IPC: 3.93181 cumulative IPC: 3.93723 (Simulation time: 0 hr 2 min 17 sec) 
Heartbeat CPU 0 instructions: 50000002 cycles: 12702019 heartbeat IPC: 3.93301 cumulative IPC: 3.93638 (Simulation time: 0 hr 2 min 52 sec) 
Heartbeat CPU 0 instructions: 60000003 cycles: 15212440 heartbeat IPC: 3.9834 cumulative IPC: 3.94414 (Simulation time: 0 hr 3 min 30 sec) 
Heartbeat CPU 0 instructions: 70000003 cycles: 17759548 heartbeat IPC: 3.92602 cumulative IPC: 3.94154 (Simulation time: 0 hr 4 min 8 sec) 
Heartbeat CPU 0 instructions: 80000002 cycles: 20296430 heartbeat IPC: 3.94185 cumulative IPC: 3.94158 (Simulation time: 0 hr 4 min 44 sec) 
Heartbeat CPU 0 instructions: 90000003 cycles: 22830608 heartbeat IPC: 3.94605 cumulative IPC: 3.94208 (Simulation time: 0 hr 5 min 28 sec) 
Heartbeat CPU 0 instructions: 100000003 cycles: 25354492 heartbeat IPC: 3.96215 cumulative IPC: 3.94407 (Simulation time: 0 hr 6 min 14 sec) 
Heartbeat CPU 0 instructions: 110000000 cycles: 27902525 heartbeat IPC: 3.92459 cumulative IPC: 3.9423 (Simulation time: 0 hr 6 min 49 sec) 
Heartbeat CPU 0 instructions: 120000002 cycles: 30430889 heartbeat IPC: 3.95513 cumulative IPC: 3.94336 (Simulation time: 0 hr 7 min 33 sec) 
Heartbeat CPU 0 instructions: 130000002 cycles: 32962177 heartbeat IPC: 3.95056 cumulative IPC: 3.94391 (Simulation time: 0 hr 8 min 33 sec) 
Heartbeat CPU 0 instructions: 140000003 cycles: 35492786 heartbeat IPC: 3.95162 cumulative IPC: 3.94446 (Simulation time: 0 hr 9 min 33 sec) 
Heartbeat CPU 0 instructions: 150000002 cycles: 38055239 heartbeat IPC: 3.90251 cumulative IPC: 3.94164 (Simulation time: 0 hr 10 min 19 sec) 
Heartbeat CPU 0 instructions: 160000002 cycles: 40609051 heartbeat IPC: 3.91571 cumulative IPC: 3.94001 (Simulation time: 0 hr 11 min 7 sec) 
Heartbeat CPU 0 instructions: 170000002 cycles: 43133266 heartbeat IPC: 3.96163 cumulative IPC: 3.94127 (Simulation time: 0 hr 11 min 42 sec) 
Heartbeat CPU 0 instructions: 180000003 cycles: 45660761 heartbeat IPC: 3.95649 cumulative IPC: 3.94212 (Simulation time: 0 hr 12 min 18 sec) 
Heartbeat CPU 0 instructions: 190000002 cycles: 48183140 heartbeat IPC: 3.96451 cumulative IPC: 3.94329 (Simulation time: 0 hr 12 min 53 sec) 
Heartbeat CPU 0 instructions: 200000003 cycles: 50723485 heartbeat IPC: 3.93647 cumulative IPC: 3.94295 (Simulation time: 0 hr 13 min 27 sec) 
Heartbeat CPU 0 instructions: 210000001 cycles: 53237085 heartbeat IPC: 3.97836 cumulative IPC: 3.94462 (Simulation time: 0 hr 14 min 2 sec) 
Heartbeat CPU 0 instructions: 220000000 cycles: 55777026 heartbeat IPC: 3.9371 cumulative IPC: 3.94428 (Simulation time: 0 hr 14 min 37 sec) 
Heartbeat CPU 0 instructions: 230000002 cycles: 58310253 heartbeat IPC: 3.94753 cumulative IPC: 3.94442 (Simulation time: 0 hr 15 min 13 sec) 
Heartbeat CPU 0 instructions: 240000000 cycles: 60829472 heartbeat IPC: 3.96948 cumulative IPC: 3.94546 (Simulation time: 0 hr 15 min 49 sec) 
Heartbeat CPU 0 instructions: 250000003 cycles: 63341086 heartbeat IPC: 3.9815 cumulative IPC: 3.94689 (Simulation time: 0 hr 16 min 26 sec) 
Heartbeat CPU 0 instructions: 260000002 cycles: 65879901 heartbeat IPC: 3.93885 cumulative IPC: 3.94658 (Simulation time: 0 hr 17 min 5 sec) 
Heartbeat CPU 0 instructions: 270000002 cycles: 68393867 heartbeat IPC: 3.97778 cumulative IPC: 3.94772 (Simulation time: 0 hr 17 min 42 sec) 
Heartbeat CPU 0 instructions: 280000002 cycles: 70929735 heartbeat IPC: 3.94342 cumulative IPC: 3.94757 (Simulation time: 0 hr 18 min 21 sec) 
Heartbeat CPU 0 instructions: 290000000 cycles: 73444523 heartbeat IPC: 3.97648 cumulative IPC: 3.94856 (Simulation time: 0 hr 19 min 13 sec) 
Heartbeat CPU 0 instructions: 300000000 cycles: 75975153 heartbeat IPC: 3.95159 cumulative IPC: 3.94866 (Simulation time: 0 hr 20 min 3 sec) 
Heartbeat CPU 0 instructions: 310000000 cycles: 78498397 heartbeat IPC: 3.96315 cumulative IPC: 3.94913 (Simulation time: 0 hr 20 min 55 sec) 
Heartbeat CPU 0 instructions: 320000003 cycles: 81011613 heartbeat IPC: 3.97897 cumulative IPC: 3.95005 (Simulation time: 0 hr 21 min 30 sec) 
Heartbeat CPU 0 instructions: 330000000 cycles: 83545367 heartbeat IPC: 3.94671 cumulative IPC: 3.94995 (Simulation time: 0 hr 22 min 13 sec) 
Heartbeat CPU 0 instructions: 340000003 cycles: 86062470 heartbeat IPC: 3.97282 cumulative IPC: 3.95062 (Simulation time: 0 hr 22 min 58 sec) 
Heartbeat CPU 0 instructions: 350000002 cycles: 88598295 heartbeat IPC: 3.94349 cumulative IPC: 3.95041 (Simulation time: 0 hr 23 min 37 sec) 
Heartbeat CPU 0 instructions: 360000003 cycles: 91117541 heartbeat IPC: 3.96944 cumulative IPC: 3.95094 (Simulation time: 0 hr 24 min 26 sec) 
Heartbeat CPU 0 instructions: 370000000 cycles: 93648693 heartbeat IPC: 3.95077 cumulative IPC: 3.95094 (Simulation time: 0 hr 25 min 1 sec) 
Heartbeat CPU 0 instructions: 380000003 cycles: 96173150 heartbeat IPC: 3.96125 cumulative IPC: 3.95121 (Simulation time: 0 hr 25 min 36 sec) 
Heartbeat CPU 0 instructions: 390000003 cycles: 98712609 heartbeat IPC: 3.93785 cumulative IPC: 3.95086 (Simulation time: 0 hr 26 min 20 sec) 
Heartbeat CPU 0 instructions: 400000003 cycles: 101227264 heartbeat IPC: 3.97669 cumulative IPC: 3.9515 (Simulation time: 0 hr 27 min 5 sec) 
Heartbeat CPU 0 instructions: 410000001 cycles: 103764295 heartbeat IPC: 3.94161 cumulative IPC: 3.95126 (Simulation time: 0 hr 27 min 58 sec) 
Heartbeat CPU 0 instructions: 420000001 cycles: 106277495 heartbeat IPC: 3.97899 cumulative IPC: 3.95192 (Simulation time: 0 hr 28 min 35 sec) 
Heartbeat CPU 0 instructions: 430000003 cycles: 108816940 heartbeat IPC: 3.93787 cumulative IPC: 3.95159 (Simulation time: 0 hr 29 min 8 sec) 
Heartbeat CPU 0 instructions: 440000002 cycles: 111330187 heartbeat IPC: 3.97892 cumulative IPC: 3.95221 (Simulation time: 0 hr 29 min 44 sec) 
Heartbeat CPU 0 instructions: 450000000 cycles: 113864702 heartbeat IPC: 3.94553 cumulative IPC: 3.95206 (Simulation time: 0 hr 30 min 20 sec) 
Heartbeat CPU 0 instructions: 460000003 cycles: 116381703 heartbeat IPC: 3.97298 cumulative IPC: 3.95251 (Simulation time: 0 hr 31 min 2 sec) 
Heartbeat CPU 0 instructions: 470000001 cycles: 118919635 heartbeat IPC: 3.94022 cumulative IPC: 3.95225 (Simulation time: 0 hr 31 min 35 sec) 
Heartbeat CPU 0 instructions: 480000000 cycles: 121435801 heartbeat IPC: 3.9743 cumulative IPC: 3.95271 (Simulation time: 0 hr 32 min 11 sec) 
Heartbeat CPU 0 instructions: 490000002 cycles: 123976404 heartbeat IPC: 3.93607 cumulative IPC: 3.95236 (Simulation time: 0 hr 32 min 45 sec) 
Heartbeat CPU 0 instructions: 500000002 cycles: 126493330 heartbeat IPC: 3.9731 cumulative IPC: 3.95278 (Simulation time: 0 hr 33 min 19 sec) 

Warmup complete CPU 0 instructions: 500000002 cycles: 126493330 (Simulation time: 0 hr 33 min 19 sec) 

Heartbeat CPU 0 instructions: 510000001 cycles: 142154553 heartbeat IPC: 0.63852 cumulative IPC: 0.63852 (Simulation time: 0 hr 35 min 37 sec) 
Heartbeat CPU 0 instructions: 520000004 cycles: 167974564 heartbeat IPC: 0.387297 cumulative IPC: 0.482146 (Simulation time: 0 hr 39 min 16 sec) 
Heartbeat CPU 0 instructions: 530000001 cycles: 187325941 heartbeat IPC: 0.516759 cumulative IPC: 0.493157 (Simulation time: 0 hr 41 min 18 sec) 
Heartbeat CPU 0 instructions: 540000000 cycles: 198321277 heartbeat IPC: 0.909476 cumulative IPC: 0.556886 (Simulation time: 0 hr 41 min 57 sec) 
Heartbeat CPU 0 instructions: 550000000 cycles: 209417081 heartbeat IPC: 0.901242 cumulative IPC: 0.602964 (Simulation time: 0 hr 42 min 36 sec) 
Heartbeat CPU 0 instructions: 560000000 cycles: 221041397 heartbeat IPC: 0.860266 cumulative IPC: 0.634598 (Simulation time: 0 hr 43 min 14 sec) 
Heartbeat CPU 0 instructions: 570000003 cycles: 232940929 heartbeat IPC: 0.840369 cumulative IPC: 0.657601 (Simulation time: 0 hr 43 min 52 sec) 
Heartbeat CPU 0 instructions: 580000000 cycles: 244814978 heartbeat IPC: 0.842172 cumulative IPC: 0.676123 (Simulation time: 0 hr 44 min 31 sec) 
Heartbeat CPU 0 instructions: 590000003 cycles: 256458576 heartbeat IPC: 0.858841 cumulative IPC: 0.692493 (Simulation time: 0 hr 45 min 16 sec) 
Heartbeat CPU 0 instructions: 600000000 cycles: 267867973 heartbeat IPC: 0.87647 cumulative IPC: 0.70734 (Simulation time: 0 hr 45 min 57 sec) 
Heartbeat CPU 0 instructions: 610000002 cycles: 279267465 heartbeat IPC: 0.877232 cumulative IPC: 0.720017 (Simulation time: 0 hr 46 min 44 sec) 
Heartbeat CPU 0 instructions: 620000004 cycles: 289971498 heartbeat IPC: 0.934228 cumulative IPC: 0.734043 (Simulation time: 0 hr 47 min 22 sec) 
Heartbeat CPU 0 instructions: 630000001 cycles: 300657408 heartbeat IPC: 0.935811 cumulative IPC: 0.746423 (Simulation time: 0 hr 47 min 59 sec) 
Heartbeat CPU 0 instructions: 640000001 cycles: 311082389 heartbeat IPC: 0.959234 cumulative IPC: 0.758442 (Simulation time: 0 hr 48 min 37 sec) 
Heartbeat CPU 0 instructions: 650000000 cycles: 321331199 heartbeat IPC: 0.975723 cumulative IPC: 0.769871 (Simulation time: 0 hr 49 min 15 sec) 
Heartbeat CPU 0 instructions: 660000002 cycles: 331928769 heartbeat IPC: 0.943613 cumulative IPC: 0.778834 (Simulation time: 0 hr 49 min 53 sec) 
Heartbeat CPU 0 instructions: 670000000 cycles: 342229671 heartbeat IPC: 0.970789 cumulative IPC: 0.787999 (Simulation time: 0 hr 50 min 31 sec) 
Heartbeat CPU 0 instructions: 680000000 cycles: 352755240 heartbeat IPC: 0.950067 cumulative IPC: 0.795538 (Simulation time: 0 hr 51 min 9 sec) 
Heartbeat CPU 0 instructions: 690000001 cycles: 363147050 heartbeat IPC: 0.962296 cumulative IPC: 0.802861 (Simulation time: 0 hr 51 min 46 sec) 
Heartbeat CPU 0 instructions: 700000001 cycles: 373642931 heartbeat IPC: 0.952755 cumulative IPC: 0.809226 (Simulation time: 0 hr 52 min 23 sec) 
Heartbeat CPU 0 instructions: 710000000 cycles: 383918831 heartbeat IPC: 0.973151 cumulative IPC: 0.81577 (Simulation time: 0 hr 53 min 2 sec) 
Heartbeat CPU 0 instructions: 720000000 cycles: 394270780 heartbeat IPC: 0.966002 cumulative IPC: 0.821578 (Simulation time: 0 hr 53 min 40 sec) 
Heartbeat CPU 0 instructions: 730000003 cycles: 404616364 heartbeat IPC: 0.966596 cumulative IPC: 0.826972 (Simulation time: 0 hr 54 min 43 sec) 
Heartbeat CPU 0 instructions: 740000000 cycles: 415309075 heartbeat IPC: 0.935216 cumulative IPC: 0.83098 (Simulation time: 0 hr 55 min 21 sec) 
Heartbeat CPU 0 instructions: 750000002 cycles: 426209320 heartbeat IPC: 0.917411 cumulative IPC: 0.834123 (Simulation time: 0 hr 55 min 58 sec) 
Heartbeat CPU 0 instructions: 760000003 cycles: 437426139 heartbeat IPC: 0.891518 cumulative IPC: 0.836194 (Simulation time: 0 hr 56 min 36 sec) 
Heartbeat CPU 0 instructions: 770000000 cycles: 447932083 heartbeat IPC: 0.951842 cumulative IPC: 0.839973 (Simulation time: 0 hr 57 min 13 sec) 
Heartbeat CPU 0 instructions: 780000000 cycles: 458884793 heartbeat IPC: 0.913016 cumulative IPC: 0.84238 (Simulation time: 0 hr 57 min 51 sec) 
Heartbeat CPU 0 instructions: 790000000 cycles: 469219694 heartbeat IPC: 0.967595 cumulative IPC: 0.846156 (Simulation time: 0 hr 58 min 29 sec) 
Heartbeat CPU 0 instructions: 800000002 cycles: 480111497 heartbeat IPC: 0.918122 cumulative IPC: 0.848373 (Simulation time: 0 hr 59 min 8 sec) 
Heartbeat CPU 0 instructions: 810000001 cycles: 490824593 heartbeat IPC: 0.933437 cumulative IPC: 0.850874 (Simulation time: 0 hr 59 min 45 sec) 
Heartbeat CPU 0 instructions: 820000003 cycles: 502078366 heartbeat IPC: 0.888591 cumulative IPC: 0.852004 (Simulation time: 1 hr 0 min 23 sec) 
Heartbeat CPU 0 instructions: 830000000 cycles: 513950147 heartbeat IPC: 0.842333 cumulative IPC: 0.851708 (Simulation time: 1 hr 1 min 1 sec) 
Heartbeat CPU 0 instructions: 840000004 cycles: 525537915 heartbeat IPC: 0.862979 cumulative IPC: 0.852035 (Simulation time: 1 hr 1 min 39 sec) 
Heartbeat CPU 0 instructions: 850000000 cycles: 537059881 heartbeat IPC: 0.867907 cumulative IPC: 0.852481 (Simulation time: 1 hr 2 min 18 sec) 
Heartbeat CPU 0 instructions: 860000001 cycles: 548381630 heartbeat IPC: 0.883256 cumulative IPC: 0.853306 (Simulation time: 1 hr 2 min 56 sec) 
Heartbeat CPU 0 instructions: 870000002 cycles: 559543001 heartbeat IPC: 0.895947 cumulative IPC: 0.854405 (Simulation time: 1 hr 3 min 33 sec) 
Heartbeat CPU 0 instructions: 880000001 cycles: 570967817 heartbeat IPC: 0.875288 cumulative IPC: 0.854942 (Simulation time: 1 hr 4 min 12 sec) 
Heartbeat CPU 0 instructions: 890000001 cycles: 582292092 heartbeat IPC: 0.883059 cumulative IPC: 0.855641 (Simulation time: 1 hr 4 min 50 sec) 
Heartbeat CPU 0 instructions: 900000001 cycles: 592976437 heartbeat IPC: 0.935949 cumulative IPC: 0.85748 (Simulation time: 1 hr 5 min 28 sec) 
Heartbeat CPU 0 instructions: 910000000 cycles: 604075947 heartbeat IPC: 0.900941 cumulative IPC: 0.85849 (Simulation time: 1 hr 6 min 7 sec) 
Heartbeat CPU 0 instructions: 920000004 cycles: 615230189 heartbeat IPC: 0.89652 cumulative IPC: 0.859358 (Simulation time: 1 hr 6 min 46 sec) 
Heartbeat CPU 0 instructions: 930000001 cycles: 625989319 heartbeat IPC: 0.929443 cumulative IPC: 0.860868 (Simulation time: 1 hr 7 min 24 sec) 
Heartbeat CPU 0 instructions: 940000000 cycles: 636776397 heartbeat IPC: 0.927035 cumulative IPC: 0.862266 (Simulation time: 1 hr 8 min 2 sec) 
Heartbeat CPU 0 instructions: 950000001 cycles: 647692889 heartbeat IPC: 0.916045 cumulative IPC: 0.863393 (Simulation time: 1 hr 8 min 40 sec) 
Heartbeat CPU 0 instructions: 960000000 cycles: 659135393 heartbeat IPC: 0.873935 cumulative IPC: 0.863619 (Simulation time: 1 hr 9 min 20 sec) 
Heartbeat CPU 0 instructions: 970000004 cycles: 670422220 heartbeat IPC: 0.885989 cumulative IPC: 0.864084 (Simulation time: 1 hr 10 min 0 sec) 
Heartbeat CPU 0 instructions: 980000000 cycles: 681295717 heartbeat IPC: 0.919667 cumulative IPC: 0.865173 (Simulation time: 1 hr 10 min 43 sec) 
Heartbeat CPU 0 instructions: 990000000 cycles: 692436457 heartbeat IPC: 0.897606 cumulative IPC: 0.865811 (Simulation time: 1 hr 11 min 24 sec) 
Heartbeat CPU 0 instructions: 1000000002 cycles: 703096101 heartbeat IPC: 0.938118 cumulative IPC: 0.867148 (Simulation time: 1 hr 12 min 0 sec) 
Heartbeat CPU 0 instructions: 1010000003 cycles: 714538209 heartbeat IPC: 0.873965 cumulative IPC: 0.867281 (Simulation time: 1 hr 12 min 37 sec) 
Heartbeat CPU 0 instructions: 1020000001 cycles: 725509383 heartbeat IPC: 0.911479 cumulative IPC: 0.86809 (Simulation time: 1 hr 13 min 14 sec) 
Heartbeat CPU 0 instructions: 1030000001 cycles: 736300344 heartbeat IPC: 0.926702 cumulative IPC: 0.869127 (Simulation time: 1 hr 13 min 49 sec) 
Heartbeat CPU 0 instructions: 1040000004 cycles: 747671638 heartbeat IPC: 0.879408 cumulative IPC: 0.869316 (Simulation time: 1 hr 14 min 26 sec) 
Heartbeat CPU 0 instructions: 1050000004 cycles: 759007904 heartbeat IPC: 0.882125 cumulative IPC: 0.869545 (Simulation time: 1 hr 15 min 3 sec) 
Heartbeat CPU 0 instructions: 1060000002 cycles: 770354747 heartbeat IPC: 0.881302 cumulative IPC: 0.869752 (Simulation time: 1 hr 15 min 40 sec) 
Heartbeat CPU 0 instructions: 1070000003 cycles: 781661762 heartbeat IPC: 0.884407 cumulative IPC: 0.870005 (Simulation time: 1 hr 16 min 16 sec) 
Heartbeat CPU 0 instructions: 1080000002 cycles: 793078409 heartbeat IPC: 0.875914 cumulative IPC: 0.870106 (Simulation time: 1 hr 16 min 53 sec) 
Heartbeat CPU 0 instructions: 1090000000 cycles: 804274848 heartbeat IPC: 0.893141 cumulative IPC: 0.870487 (Simulation time: 1 hr 17 min 30 sec) 
Heartbeat CPU 0 instructions: 1100000000 cycles: 815375046 heartbeat IPC: 0.900885 cumulative IPC: 0.870977 (Simulation time: 1 hr 18 min 8 sec) 
Heartbeat CPU 0 instructions: 1110000003 cycles: 826559947 heartbeat IPC: 0.894063 cumulative IPC: 0.871346 (Simulation time: 1 hr 18 min 45 sec) 
Heartbeat CPU 0 instructions: 1120000000 cycles: 837888203 heartbeat IPC: 0.882748 cumulative IPC: 0.871527 (Simulation time: 1 hr 19 min 23 sec) 
Heartbeat CPU 0 instructions: 1130000002 cycles: 849171775 heartbeat IPC: 0.886244 cumulative IPC: 0.871757 (Simulation time: 1 hr 20 min 1 sec) 
Heartbeat CPU 0 instructions: 1140000001 cycles: 860129315 heartbeat IPC: 0.912614 cumulative IPC: 0.872367 (Simulation time: 1 hr 20 min 38 sec) 
Heartbeat CPU 0 instructions: 1150000001 cycles: 871210023 heartbeat IPC: 0.902469 cumulative IPC: 0.872815 (Simulation time: 1 hr 21 min 16 sec) 
Heartbeat CPU 0 instructions: 1160000000 cycles: 882337523 heartbeat IPC: 0.898674 cumulative IPC: 0.873196 (Simulation time: 1 hr 22 min 3 sec) 
Heartbeat CPU 0 instructions: 1170000002 cycles: 893595330 heartbeat IPC: 0.888273 cumulative IPC: 0.873417 (Simulation time: 1 hr 23 min 3 sec) 
Heartbeat CPU 0 instructions: 1180000002 cycles: 904976100 heartbeat IPC: 0.878675 cumulative IPC: 0.873494 (Simulation time: 1 hr 23 min 43 sec) 
Heartbeat CPU 0 instructions: 1190000000 cycles: 916266196 heartbeat IPC: 0.885732 cumulative IPC: 0.873669 (Simulation time: 1 hr 24 min 26 sec) 
Heartbeat CPU 0 instructions: 1200000000 cycles: 927574268 heartbeat IPC: 0.884324 cumulative IPC: 0.873819 (Simulation time: 1 hr 25 min 7 sec) 
Heartbeat CPU 0 instructions: 1210000003 cycles: 938815750 heartbeat IPC: 0.889563 cumulative IPC: 0.874037 (Simulation time: 1 hr 25 min 48 sec) 
Heartbeat CPU 0 instructions: 1220000001 cycles: 950156569 heartbeat IPC: 0.88177 cumulative IPC: 0.874144 (Simulation time: 1 hr 26 min 34 sec) 
Heartbeat CPU 0 instructions: 1230000004 cycles: 961571979 heartbeat IPC: 0.876009 cumulative IPC: 0.874169 (Simulation time: 1 hr 27 min 15 sec) 
Heartbeat CPU 0 instructions: 1240000003 cycles: 972667003 heartbeat IPC: 0.901305 cumulative IPC: 0.874525 (Simulation time: 1 hr 28 min 0 sec) 
Heartbeat CPU 0 instructions: 1250000001 cycles: 983635907 heartbeat IPC: 0.911668 cumulative IPC: 0.875 (Simulation time: 1 hr 28 min 45 sec) 
Heartbeat CPU 0 instructions: 1260000002 cycles: 994797594 heartbeat IPC: 0.895922 cumulative IPC: 0.875269 (Simulation time: 1 hr 29 min 24 sec) 
Heartbeat CPU 0 instructions: 1270000002 cycles: 1006419515 heartbeat IPC: 0.860443 cumulative IPC: 0.875073 (Simulation time: 1 hr 30 min 4 sec) 
Heartbeat CPU 0 instructions: 1280000001 cycles: 1017867285 heartbeat IPC: 0.873532 cumulative IPC: 0.875054 (Simulation time: 1 hr 30 min 43 sec) 
Heartbeat CPU 0 instructions: 1290000001 cycles: 1029083556 heartbeat IPC: 0.891562 cumulative IPC: 0.875259 (Simulation time: 1 hr 31 min 20 sec) 
Heartbeat CPU 0 instructions: 1300000000 cycles: 1040597895 heartbeat IPC: 0.868482 cumulative IPC: 0.875173 (Simulation time: 1 hr 31 min 57 sec) 
Heartbeat CPU 0 instructions: 1310000002 cycles: 1052177807 heartbeat IPC: 0.863565 cumulative IPC: 0.875028 (Simulation time: 1 hr 32 min 51 sec) 
Heartbeat CPU 0 instructions: 1320000003 cycles: 1063284782 heartbeat IPC: 0.900335 cumulative IPC: 0.875328 (Simulation time: 1 hr 33 min 33 sec) 
Heartbeat CPU 0 instructions: 1330000002 cycles: 1074573439 heartbeat IPC: 0.885845 cumulative IPC: 0.875453 (Simulation time: 1 hr 34 min 10 sec) 
Heartbeat CPU 0 instructions: 1340000004 cycles: 1086107449 heartbeat IPC: 0.867001 cumulative IPC: 0.875352 (Simulation time: 1 hr 34 min 47 sec) 
Heartbeat CPU 0 instructions: 1350000002 cycles: 1097340358 heartbeat IPC: 0.890241 cumulative IPC: 0.875524 (Simulation time: 1 hr 35 min 25 sec) 
Heartbeat CPU 0 instructions: 1360000003 cycles: 1108571913 heartbeat IPC: 0.890349 cumulative IPC: 0.875694 (Simulation time: 1 hr 36 min 2 sec) 
Heartbeat CPU 0 instructions: 1370000000 cycles: 1119925739 heartbeat IPC: 0.88076 cumulative IPC: 0.875752 (Simulation time: 1 hr 36 min 39 sec) 
Heartbeat CPU 0 instructions: 1380000003 cycles: 1131058101 heartbeat IPC: 0.898282 cumulative IPC: 0.876001 (Simulation time: 1 hr 37 min 17 sec) 
Heartbeat CPU 0 instructions: 1390000004 cycles: 1142161056 heartbeat IPC: 0.900661 cumulative IPC: 0.876271 (Simulation time: 1 hr 37 min 55 sec) 
Heartbeat CPU 0 instructions: 1400000001 cycles: 1153832103 heartbeat IPC: 0.856821 cumulative IPC: 0.87605 (Simulation time: 1 hr 38 min 36 sec) 
Heartbeat CPU 0 instructions: 1410000001 cycles: 1165224602 heartbeat IPC: 0.877771 cumulative IPC: 0.876069 (Simulation time: 1 hr 39 min 15 sec) 
Heartbeat CPU 0 instructions: 1420000000 cycles: 1176292035 heartbeat IPC: 0.903552 cumulative IPC: 0.876359 (Simulation time: 1 hr 39 min 52 sec) 
Heartbeat CPU 0 instructions: 1430000000 cycles: 1187210322 heartbeat IPC: 0.915895 cumulative IPC: 0.876765 (Simulation time: 1 hr 40 min 30 sec) 
Heartbeat CPU 0 instructions: 1440000001 cycles: 1198316896 heartbeat IPC: 0.900368 cumulative IPC: 0.87701 (Simulation time: 1 hr 41 min 8 sec) 
Heartbeat CPU 0 instructions: 1450000002 cycles: 1209684450 heartbeat IPC: 0.879697 cumulative IPC: 0.877038 (Simulation time: 1 hr 41 min 46 sec) 
Heartbeat CPU 0 instructions: 1460000002 cycles: 1220782817 heartbeat IPC: 0.901033 cumulative IPC: 0.877282 (Simulation time: 1 hr 42 min 36 sec) 
Heartbeat CPU 0 instructions: 1470000002 cycles: 1232189583 heartbeat IPC: 0.876673 cumulative IPC: 0.877275 (Simulation time: 1 hr 43 min 41 sec) 
Heartbeat CPU 0 instructions: 1480000001 cycles: 1243362833 heartbeat IPC: 0.894995 cumulative IPC: 0.877453 (Simulation time: 1 hr 44 min 18 sec) 
Heartbeat CPU 0 instructions: 1490000001 cycles: 1254776277 heartbeat IPC: 0.87616 cumulative IPC: 0.877439 (Simulation time: 1 hr 44 min 57 sec) 
Heartbeat CPU 0 instructions: 1500000000 cycles: 1265828885 heartbeat IPC: 0.904764 cumulative IPC: 0.877705 (Simulation time: 1 hr 45 min 41 sec) 
Heartbeat CPU 0 instructions: 1510000003 cycles: 1277045127 heartbeat IPC: 0.891564 cumulative IPC: 0.87784 (Simulation time: 1 hr 46 min 23 sec) 
Heartbeat CPU 0 instructions: 1520000000 cycles: 1287862374 heartbeat IPC: 0.924449 cumulative IPC: 0.878274 (Simulation time: 1 hr 47 min 1 sec) 
Heartbeat CPU 0 instructions: 1530000001 cycles: 1298920962 heartbeat IPC: 0.904275 cumulative IPC: 0.878519 (Simulation time: 1 hr 47 min 51 sec) 
Heartbeat CPU 0 instructions: 1540000000 cycles: 1310526222 heartbeat IPC: 0.861678 cumulative IPC: 0.878354 (Simulation time: 1 hr 48 min 29 sec) 
Heartbeat CPU 0 instructions: 1550000001 cycles: 1322231669 heartbeat IPC: 0.854303 cumulative IPC: 0.878119 (Simulation time: 1 hr 49 min 8 sec) 
Heartbeat CPU 0 instructions: 1560000001 cycles: 1333751572 heartbeat IPC: 0.868063 cumulative IPC: 0.878023 (Simulation time: 1 hr 49 min 45 sec) 
Heartbeat CPU 0 instructions: 1570000004 cycles: 1345248017 heartbeat IPC: 0.869834 cumulative IPC: 0.877945 (Simulation time: 1 hr 50 min 22 sec) 
Heartbeat CPU 0 instructions: 1580000001 cycles: 1356652662 heartbeat IPC: 0.876835 cumulative IPC: 0.877935 (Simulation time: 1 hr 51 min 1 sec) 
Heartbeat CPU 0 instructions: 1590000002 cycles: 1367610492 heartbeat IPC: 0.91259 cumulative IPC: 0.878241 (Simulation time: 1 hr 51 min 58 sec) 
Heartbeat CPU 0 instructions: 1600000000 cycles: 1378855388 heartbeat IPC: 0.889292 cumulative IPC: 0.87834 (Simulation time: 1 hr 52 min 51 sec) 
Heartbeat CPU 0 instructions: 1610000001 cycles: 1390254480 heartbeat IPC: 0.877263 cumulative IPC: 0.878331 (Simulation time: 1 hr 53 min 32 sec) 
Heartbeat CPU 0 instructions: 1620000003 cycles: 1401428251 heartbeat IPC: 0.894953 cumulative IPC: 0.878476 (Simulation time: 1 hr 54 min 9 sec) 
Heartbeat CPU 0 instructions: 1630000002 cycles: 1412578898 heartbeat IPC: 0.896809 cumulative IPC: 0.878635 (Simulation time: 1 hr 54 min 45 sec) 
Heartbeat CPU 0 instructions: 1640000000 cycles: 1423861465 heartbeat IPC: 0.886323 cumulative IPC: 0.878702 (Simulation time: 1 hr 55 min 21 sec) 
Heartbeat CPU 0 instructions: 1650000003 cycles: 1435261437 heartbeat IPC: 0.877195 cumulative IPC: 0.878689 (Simulation time: 1 hr 55 min 59 sec) 
Heartbeat CPU 0 instructions: 1660000002 cycles: 1446158861 heartbeat IPC: 0.917648 cumulative IPC: 0.879011 (Simulation time: 1 hr 56 min 35 sec) 
Heartbeat CPU 0 instructions: 1670000000 cycles: 1457603777 heartbeat IPC: 0.87375 cumulative IPC: 0.878965 (Simulation time: 1 hr 57 min 14 sec) 
Heartbeat CPU 0 instructions: 1680000000 cycles: 1468523735 heartbeat IPC: 0.915754 cumulative IPC: 0.879265 (Simulation time: 1 hr 57 min 51 sec) 
Heartbeat CPU 0 instructions: 1690000000 cycles: 1480083381 heartbeat IPC: 0.865078 cumulative IPC: 0.879144 (Simulation time: 1 hr 58 min 29 sec) 
Heartbeat CPU 0 instructions: 1700000004 cycles: 1491674110 heartbeat IPC: 0.862759 cumulative IPC: 0.879004 (Simulation time: 1 hr 59 min 8 sec) 
Heartbeat CPU 0 instructions: 1710000003 cycles: 1502650916 heartbeat IPC: 0.911012 cumulative IPC: 0.87926 (Simulation time: 1 hr 59 min 46 sec) 
Heartbeat CPU 0 instructions: 1720000000 cycles: 1513726251 heartbeat IPC: 0.902907 cumulative IPC: 0.879449 (Simulation time: 2 hr 0 min 22 sec) 
Heartbeat CPU 0 instructions: 1730000004 cycles: 1524857471 heartbeat IPC: 0.898374 cumulative IPC: 0.879599 (Simulation time: 2 hr 1 min 0 sec) 
Heartbeat CPU 0 instructions: 1740000004 cycles: 1536378206 heartbeat IPC: 0.868 cumulative IPC: 0.879504 (Simulation time: 2 hr 1 min 38 sec) 
Heartbeat CPU 0 instructions: 1750000003 cycles: 1547325763 heartbeat IPC: 0.913446 cumulative IPC: 0.879766 (Simulation time: 2 hr 2 min 16 sec) 
Heartbeat CPU 0 instructions: 1760000002 cycles: 1558806510 heartbeat IPC: 0.871023 cumulative IPC: 0.879696 (Simulation time: 2 hr 2 min 54 sec) 
Heartbeat CPU 0 instructions: 1770000000 cycles: 1570221446 heartbeat IPC: 0.876045 cumulative IPC: 0.879667 (Simulation time: 2 hr 3 min 32 sec) 
Heartbeat CPU 0 instructions: 1780000000 cycles: 1581734669 heartbeat IPC: 0.868567 cumulative IPC: 0.879579 (Simulation time: 2 hr 4 min 9 sec) 
Heartbeat CPU 0 instructions: 1790000001 cycles: 1592771171 heartbeat IPC: 0.906084 cumulative IPC: 0.879779 (Simulation time: 2 hr 4 min 46 sec) 
Heartbeat CPU 0 instructions: 1800000003 cycles: 1604063958 heartbeat IPC: 0.885521 cumulative IPC: 0.879823 (Simulation time: 2 hr 5 min 23 sec) 
Heartbeat CPU 0 instructions: 1810000002 cycles: 1615556140 heartbeat IPC: 0.870157 cumulative IPC: 0.879748 (Simulation time: 2 hr 6 min 1 sec) 
Heartbeat CPU 0 instructions: 1820000003 cycles: 1627215889 heartbeat IPC: 0.857651 cumulative IPC: 0.879576 (Simulation time: 2 hr 6 min 40 sec) 
Heartbeat CPU 0 instructions: 1830000000 cycles: 1639239101 heartbeat IPC: 0.831724 cumulative IPC: 0.879196 (Simulation time: 2 hr 7 min 18 sec) 
Heartbeat CPU 0 instructions: 1840000000 cycles: 1651498460 heartbeat IPC: 0.815703 cumulative IPC: 0.878686 (Simulation time: 2 hr 7 min 56 sec) 
Heartbeat CPU 0 instructions: 1850000000 cycles: 1663297883 heartbeat IPC: 0.847499 cumulative IPC: 0.878446 (Simulation time: 2 hr 8 min 33 sec) 
Heartbeat CPU 0 instructions: 1860000001 cycles: 1675003032 heartbeat IPC: 0.854325 cumulative IPC: 0.878264 (Simulation time: 2 hr 9 min 11 sec) 
Heartbeat CPU 0 instructions: 1870000000 cycles: 1686263224 heartbeat IPC: 0.888084 cumulative IPC: 0.878335 (Simulation time: 2 hr 9 min 49 sec) 
Heartbeat CPU 0 instructions: 1880000002 cycles: 1697930897 heartbeat IPC: 0.857069 cumulative IPC: 0.878177 (Simulation time: 2 hr 10 min 27 sec) 
Heartbeat CPU 0 instructions: 1890000000 cycles: 1709585307 heartbeat IPC: 0.858044 cumulative IPC: 0.878029 (Simulation time: 2 hr 11 min 5 sec) 
Heartbeat CPU 0 instructions: 1900000001 cycles: 1721334934 heartbeat IPC: 0.851091 cumulative IPC: 0.87783 (Simulation time: 2 hr 11 min 44 sec) 
Heartbeat CPU 0 instructions: 1910000000 cycles: 1732991635 heartbeat IPC: 0.857876 cumulative IPC: 0.877685 (Simulation time: 2 hr 12 min 22 sec) 
Heartbeat CPU 0 instructions: 1920000000 cycles: 1744431695 heartbeat IPC: 0.874121 cumulative IPC: 0.87766 (Simulation time: 2 hr 12 min 59 sec) 
Heartbeat CPU 0 instructions: 1930000000 cycles: 1755871955 heartbeat IPC: 0.874106 cumulative IPC: 0.877635 (Simulation time: 2 hr 13 min 36 sec) 
Heartbeat CPU 0 instructions: 1940000001 cycles: 1767176350 heartbeat IPC: 0.884612 cumulative IPC: 0.877683 (Simulation time: 2 hr 14 min 13 sec) 
Heartbeat CPU 0 instructions: 1950000002 cycles: 1778532721 heartbeat IPC: 0.880563 cumulative IPC: 0.877703 (Simulation time: 2 hr 14 min 51 sec) 
Heartbeat CPU 0 instructions: 1960000001 cycles: 1790043913 heartbeat IPC: 0.86872 cumulative IPC: 0.877641 (Simulation time: 2 hr 15 min 29 sec) 
Heartbeat CPU 0 instructions: 1970000000 cycles: 1801343546 heartbeat IPC: 0.884984 cumulative IPC: 0.87769 (Simulation time: 2 hr 16 min 6 sec) 
Heartbeat CPU 0 instructions: 1980000001 cycles: 1812695642 heartbeat IPC: 0.880895 cumulative IPC: 0.877712 (Simulation time: 2 hr 16 min 43 sec) 
Heartbeat CPU 0 instructions: 1990000001 cycles: 1824143868 heartbeat IPC: 0.873498 cumulative IPC: 0.877684 (Simulation time: 2 hr 17 min 20 sec) 
*** Reached end of trace: traces/445.gobmk-36B.champsimtrace.xz
Heartbeat CPU 0 instructions: 2000000000 cycles: 1835122581 heartbeat IPC: 0.910854 cumulative IPC: 0.877897 (Simulation time: 2 hr 17 min 56 sec) 
Finished CPU 0 instructions: 1500000004 cycles: 1708629267 cumulative IPC: 0.877897 (Simulation time: 2 hr 17 min 56 sec) 

ChampSim completed all CPUs

Region of Interest Statistics

CPU 0 cumulative IPC: 0.877897 instructions: 1500000004 cycles: 1708629267
cpu0_DTLB TOTAL     ACCESS:  327601975  HIT:  326394232  MISS:    1207743
cpu0_DTLB LOAD      ACCESS:  227999529  HIT:  227037496  MISS:     962033
cpu0_DTLB RFO       ACCESS:   99602446  HIT:   99356736  MISS:     245710
cpu0_DTLB PREFETCH  ACCESS:          0  HIT:          0  MISS:          0
cpu0_DTLB WRITEBACK ACCESS:          0  HIT:          0  MISS:          0
cpu0_DTLB TRANSLATION ACCESS:          0  HIT:          0  MISS:          0
cpu0_DTLB PREFETCH  REQUESTED:          0  ISSUED:          0  USEFUL:          0  USELESS:          0
cpu0_DTLB AVERAGE MISS LATENCY: 9.88834 cycles
cpu0_ITLB TOTAL     ACCESS:  132983758  HIT:  132977768  MISS:       5990
cpu0_ITLB LOAD      ACCESS:  132983758  HIT:  132977768  MISS:       5990
cpu0_ITLB RFO       ACCESS:          0  HIT:          0  MISS:          0
cpu0_ITLB PREFETCH  ACCESS:          0  HIT:          0  MISS:          0
cpu0_ITLB WRITEBACK ACCESS:          0  HIT:          0  MISS:          0
cpu0_ITLB TRANSLATION ACCESS:          0  HIT:          0  MISS:          0
cpu0_ITLB PREFETCH  REQUESTED:          0  ISSUED:          0  USEFUL:          0  USELESS:          0
cpu0_ITLB AVERAGE MISS LATENCY: 12.7679 cycles
cpu0_L1I TOTAL     ACCESS:  119301817  HIT:  115346154  MISS:    3955663
cpu0_L1I LOAD      ACCESS:  119301817  HIT:  115346154  MISS:    3955663
cpu0_L1I RFO       ACCESS:          0  HIT:          0  MISS:          0
cpu0_L1I PREFETCH  ACCESS:          0  HIT:          0  MISS:          0
cpu0_L1I WRITEBACK ACCESS:          0  HIT:          0  MISS:          0
cpu0_L1I TRANSLATION ACCESS:          0  HIT:          0  MISS:          0
cpu0_L1I PREFETCH  REQUESTED:          0  ISSUED:          0  USEFUL:          0  USELESS:          0
cpu0_L1I AVERAGE MISS LATENCY: 12.4531 cycles
cpu0_STLB TOTAL     ACCESS:    1213733  HIT:    1158793  MISS:      54940
cpu0_STLB LOAD      ACCESS:     968023  HIT:     926458  MISS:      41565
cpu0_STLB RFO       ACCESS:     245710  HIT:     232335  MISS:      13375
cpu0_STLB PREFETCH  ACCESS:          0  HIT:          0  MISS:          0
cpu0_STLB WRITEBACK ACCESS:          0  HIT:          0  MISS:          0
cpu0_STLB TRANSLATION ACCESS:          0  HIT:          0  MISS:          0
cpu0_STLB PREFETCH  REQUESTED:          0  ISSUED:          0  USEFUL:          0  USELESS:          0
cpu0_STLB AVERAGE MISS LATENCY: 19.722 cycles
cpu0_L1D TOTAL     ACCESS:  397747121  HIT:  391642661  MISS:    6104460
cpu0_L1D LOAD      ACCESS:  220051033  HIT:  216474774  MISS:    3576259
cpu0_L1D RFO       ACCESS:  177641216  HIT:  175119701  MISS:    2521515
cpu0_L1D PREFETCH  ACCESS:          0  HIT:          0  MISS:          0
cpu0_L1D WRITEBACK ACCESS:          0  HIT:          0  MISS:          0
cpu0_L1D TRANSLATION ACCESS:      54872  HIT:      48186  MISS:       6686
cpu0_L1D PREFETCH  REQUESTED:          0  ISSUED:          0  USEFUL:          0  USELESS:          0
cpu0_L1D AVERAGE MISS LATENCY: 155.638 cycles
cpu0_L2C TOTAL     ACCESS:   13543273  HIT:   11114996  MISS:    2428277
cpu0_L2C LOAD      ACCESS:    7531878  HIT:    6096858  MISS:    1435020
cpu0_L2C RFO       ACCESS:    2521478  HIT:    1530170  MISS:     991308
cpu0_L2C PREFETCH  ACCESS:          0  HIT:          0  MISS:          0
cpu0_L2C WRITEBACK ACCESS:    3483231  HIT:    3481626  MISS:       1605
cpu0_L2C TRANSLATION ACCESS:       6686  HIT:       6342  MISS:        344
cpu0_L2C PREFETCH  REQUESTED:          0  ISSUED:          0  USEFUL:          0  USELESS:          0
cpu0_L2C AVERAGE MISS LATENCY: 365.803 cycles
LLC TOTAL     ACCESS:    4034554  HIT:    2945194  MISS:    1089360
LLC LOAD      ACCESS:    1435020  HIT:    1125347  MISS:     309673
LLC RFO       ACCESS:     991308  HIT:     214685  MISS:     776623
LLC PREFETCH  ACCESS:          0  HIT:          0  MISS:          0
LLC WRITEBACK ACCESS:    1607882  HIT:    1604851  MISS:       3031
LLC TRANSLATION ACCESS:        344  HIT:        311  MISS:         33
LLC PREFETCH  REQUESTED:          0  ISSUED:          0  USEFUL:          0  USELESS:          0
LLC AVERAGE MISS LATENCY: 768.625 cycles
~~~~~~~~~~Reuse Distance Profiler output~~~~~~~~~~
0	133379712	25166896
1	50634464	23526400
2	31948400	19730304
3	24474128	15371456
4	20899600	12217248
5	15362272	9798608
6	11901968	8210272
7	9699552	6477536
8	8212608	5849200
9	7509024	5309824
10	6519168	4468240
11	6008016	4179680
12	5538512	3643344
13	5297776	3607728
14	4854896	3381600
15	4539600	3202672
16	4126832	2755424
17	4323904	2744208
18	3754624	2693360
19	3622640	2632832
20	3329024	2486560
21	3031840	2271136
22	2733872	2055712
23	2459680	1859584
24	2442240	1875552
25	2275168	1747104
26	2211520	1699344
27	2058576	1578480
28	1992432	1523216
29	2237328	1545968
30	1968192	1515200
31	1824112	1331008
32	1741216	1258464
33	1636752	1206240
34	1563744	1145904
35	1575760	1157120
36	1527408	1117840
37	1503744	1070416
38	1420080	983248
39	1409840	967152
40	1439216	1022928
41	1235232	839200
42	1215616	840240
43	1213168	843264
44	1130512	794672
45	1067344	764048
46	1078144	784160
47	1041616	764032
48	1029152	772224
49	982048	735712
50	989920	737776
51	970512	733776
52	956656	722288
53	967632	708896
54	920112	698768
55	940736	706528
56	881312	674208
57	888272	687264
58	876400	676432
59	877968	682464
60	838096	647136
61	768960	582096
62	720032	538192
63	697632	515408
64	1317760	946032
66	1261584	897456
68	1192144	814736
70	1151264	758976
72	1135904	750432
74	1129648	748800
76	1086368	717248
78	1057072	704848
80	1009408	673024
82	962896	649360
84	920480	633056
86	883360	611824
88	843920	580624
90	815408	568512
92	775920	534352
94	734208	494000
96	706576	471408
98	670016	444176
100	682464	466560
102	634256	423328
104	628784	411936
106	619952	400080
108	619168	403072
110	634096	417856
112	622336	407664
114	614176	411952
116	606560	414528
118	592448	410512
120	565680	387040
122	548672	381728
124	532720	376896
126	500384	358432
128	900640	639216
132	862608	631776
136	823664	628688
140	815072	641104
144	786432	631216
148	762304	601792
152	739152	566208
156	733536	549024
160	679040	511568
164	664688	498064
168	633280	493536
172	602624	474224
176	593056	468688
180	593248	470544
184	569840	452240
188	541808	428592
192	517168	409760
196	496176	392880
200	480960	384608
204	474624	384736
208	473104	386048
212	455600	373696
216	448864	370640
220	429504	347056
224	411376	333536
228	417360	341056
232	392432	315056
236	371424	297872
240	374880	297680
244	377728	300320
248	349616	273536
252	354448	279200
256	695024	544816
264	677056	517088
272	663968	500160
280	609312	454864
288	600464	450464
296	602000	461776
304	592800	448208
312	572448	425584
320	558880	416800
328	567552	429904
336	571440	432144
344	560000	422416
352	535328	400832
360	526512	392352
368	546944	409568
376	546928	414576
384	507376	381984
392	499264	378496
400	471056	359984
408	418080	314080
416	392272	294752
424	367728	274656
432	356912	264224
440	352752	264976
448	342448	261888
456	332736	253680
464	327424	248960
472	325360	250080
480	327616	252208
488	314272	237584
496	319728	241424
504	313488	235760
512	622960	475376
528	612640	463888
544	578256	438976
560	559872	428112
576	554448	429472
592	532144	411120
608	519936	399552
624	507536	392464
640	498176	386096
656	465904	361280
672	454560	354656
688	433248	336784
704	420608	323584
720	417456	319904
736	410592	314432
752	412256	313456
768	403952	306800
784	404880	306768
800	408032	309360
816	396288	297824
832	379840	281712
848	374256	277344
864	375840	278928
880	367104	272896
896	371968	275120
912	373808	275984
928	344336	249072
944	350880	256144
960	364080	266528
976	354944	256000
992	329328	232640
1008	324944	224768
1024	650944	444944
1056	647584	443488
1088	646480	445760
1120	647056	444928
1152	599456	405520
1184	562992	374720
1216	558784	373328
1248	531344	351392
1280	518096	346272
1312	489504	328992
1344	465184	313568
1376	444272	290720
1408	417216	271568
1440	399152	262016
1472	388816	258144
1504	360752	235280
1536	342528	219296
1568	318000	204384
1600	314704	202560
1632	293136	188128
1664	274320	174096
1696	261344	163040
1728	252592	158896
1760	243840	151152
1792	237424	146496
1824	231168	142624
1856	215024	130288
1888	206272	124224
1920	192656	115920
1952	183776	110816
1984	179424	108720
2016	174912	104432
2048	317312	190672
2112	306992	186928
2176	301168	181792
2240	274944	162608
2304	266464	158896
2368	253392	152096
2432	235024	140768
2496	225136	136112
2560	201600	119616
2624	209008	126576
2688	189984	111872
2752	183680	108384
2816	179072	106176
2880	176928	102656
2944	167216	96848
3008	162096	95152
3072	153952	89472
3136	151856	87008
3200	147008	84752
3264	138576	78704
3328	139392	82464
3392	131120	76736
3456	123264	69472
3520	127136	75808
3584	133200	78896
3648	125664	73632
3712	118272	68080
3776	114464	65136
3840	123824	68656
3904	117776	65248
3968	116448	68608
4032	108928	62448
4096	203600	116656
4224	194368	104432
4352	185488	99712
4480	167088	87552
4608	148944	77760
4736	146704	77248
4864	136464	70096
4992	140864	71120
5120	129680	65072
5248	136016	70240
5376	123936	64496
5504	123024	65392
5632	114912	62256
5760	110528	62112
5888	110944	61088
6016	101520	54576
6144	94944	48400
6272	91440	46736
6400	90912	46192
6528	98272	53376
6656	90880	48928
6784	93008	52288
6912	91456	51600
7040	86992	48240
7168	80400	43152
7296	79824	41360
7424	78048	41488
7552	76368	41312
7680	78784	43104
7808	81680	46384
7936	76976	43680
8064	77936	44896
8192	143536	81280
8448	149456	88272
8704	150032	88256
8960	145680	85488
9216	140528	80512
9472	131216	75888
9728	119440	64032
9984	113744	62896
10240	111008	62464
10496	100128	54576
10752	95536	48352
11008	92912	47760
11264	89344	45904
11520	83552	41472
11776	76256	38016
12032	84624	46816
12288	82688	44144
12544	77056	38752
12800	69520	33616
13056	73888	33920
13312	77232	34736
13568	79392	46320
13824	62112	33680
14080	64272	34656
14336	60944	32048
14592	63184	34400
14848	65664	35008
15104	62064	28864
15360	60736	25616
15616	55216	25712
15872	53296	23104
16128	54640	25056
16384	93712	48960
16896	92032	49312
17408	88448	46512
17920	78064	39584
18432	77536	40608
18944	75104	39328
19456	74480	41168
19968	72656	38992
20480	72656	39456
20992	73616	42864
21504	70288	39584
22016	74224	42288
22528	71168	42224
23040	67664	36512
23552	64832	36352
24064	64688	37712
24576	61488	34336
25088	59472	32816
25600	57088	31136
26112	50560	26272
26624	53152	28928
27136	52768	29504
27648	45920	23632
28160	40704	19408
28672	41136	19152
29184	40544	20944
29696	38672	20016
30208	39552	20208
30720	36272	16432
31232	40816	22704
31744	40944	22032
32256	35856	19728
32768	67520	33040
33792	61808	28816
34816	63024	32048
35840	65104	34896
36864	59952	29168
37888	52736	24064
38912	52608	24080
39936	50400	22816
40960	51312	25856
41984	49872	24400
43008	50960	23760
44032	47760	25008
45056	50224	25616
46080	45792	20512
47104	44528	19680
48128	46896	24144
49152	39968	18528
50176	36656	16448
51200	33760	14896
52224	38224	17872
53248	36368	14384
54272	39024	16800
55296	35264	15440
56320	36160	14720
57344	36272	16128
58368	37408	17792
59392	33056	16320
60416	33248	14288
61440	31344	12368
62464	33184	14288
63488	30640	13472
64512	31440	13312
65536	57456	26736
67584	51648	24896
69632	53792	25120
71680	51744	24592
73728	47280	21504
75776	46992	19888
77824	47040	21072
79872	42432	17072
81920	44608	19408
83968	43664	19648
86016	40928	19232
88064	39744	18656
90112	39248	19056
92160	36944	16272
94208	37600	17872
96256	40640	20192
98304	35232	15872
100352	31440	13344
102400	33248	15392
104448	32080	15760
106496	28704	13728
108544	29072	13936
110592	28800	14944
112640	27008	13296
114688	29104	14720
116736	24992	12672
118784	27040	13024
120832	24288	11424
122880	21408	9680
124928	24656	12704
126976	21952	9776
129024	22432	11424
131072	47040	23648
135168	40128	21232
139264	41424	21664
143360	38352	18960
147456	38272	20096
151552	34768	18336
155648	37952	20512
159744	31936	16208
163840	31856	15984
167936	36416	21712
172032	36048	21776
176128	34384	18320
180224	33216	19200
184320	31008	17200
188416	31456	18448
192512	31104	18352
196608	25840	13728
200704	25776	15712
204800	26736	16688
208896	25360	14784
212992	25472	14720
217088	23904	14256
221184	29456	19824
225280	27776	18528
229376	27120	17264
233472	25360	17664
237568	27344	18704
241664	26224	18384
245760	24944	17056
249856	20752	13968
253952	23776	16096
258048	20144	13152
262144	44544	30288
270336	40096	26592
278528	40304	27424
286720	36208	24496
294912	31840	21056
303104	31056	20704
311296	26848	16368
319488	34304	24496
327680	39216	29488
335872	31488	22784
344064	27168	18896
352256	25136	17328
360448	25232	17456
368640	27392	19920
376832	30656	23664
385024	29488	22096
393216	23104	16672
401408	21440	14528
409600	18624	12432
417792	23344	17488
425984	19456	14416
434176	15440	9696
442368	20400	15072
450560	20480	15792
458752	17376	12192
466944	24256	18176
475136	17744	12736
483328	20304	16144
491520	19264	15216
499712	14272	10768
507904	18640	14848
516096	18192	14384
524288	33808	25568
540672	34544	27824
557056	30752	24176
573440	30112	23824
589824	24624	18080
606208	23072	17184
622592	31712	25312
638976	23728	19408
655360	23712	19344
671744	25200	20336
688128	24256	19600
704512	19408	16256
720896	16800	12640
737280	19920	15856
753664	11680	8608
770048	13920	10640
786432	16464	13152
802816	19024	15936
819200	11712	8912
835584	14800	11680
851968	16944	14192
868352	11296	8800
884736	15664	12960
901120	9776	7632
917504	9744	7616
933888	11376	8880
950272	12496	10400
966656	369152	10064
983040	11872	9440
999424	13232	10752
1015808	15056	13024
1032192	10416	7744
1048576	19600	16080
1081344	24560	20512
1114112	18528	14912
1146880	17840	14352
1179648	16912	13472
1212416	16736	13216
1245184	14864	12336
1277952	18816	14912
1310720	18432	14672
1343488	11216	8656
1376256	10256	8272
1409024	12064	9008
1441792	13808	11856
1474560	11984	9584
1507328	9664	7808
1540096	13152	10160
1572864	18288	15472
1605632	10704	8208
1638400	12912	10816
1671168	13280	11104
1703936	13040	10896
1736704	14464	12928
1769472	9008	7664
1802240	11952	10144
1835008	10432	8816
1867776	15824	13328
1900544	11136	8592
1933312	10000	8560
1966080	5008	3392
1998848	11120	9344
2031616	9664	7232
2064384	6288	5088
2097152	25136	20944
2162688	19344	15328
2228224	26176	22224
2293760	18528	15056
2359296	18272	14208
2424832	19088	15808
2490368	14720	11456
2555904	17632	15120
2621440	12848	9712
2686976	11072	8032
2752512	11408	9472
2818048	6384	4992
2883584	11312	9232
2949120	8672	7136
3014656	9920	7584
3080192	16848	13984
3145728	9216	7296
3211264	13280	10480
3276800	9648	6912
3342336	9744	7984
3407872	8256	6736
3473408	10048	8624
3538944	4608	3504
3604480	7952	6480
3670016	6592	5376
3735552	4880	3776
3801088	8624	6784
3866624	5760	4608
3932160	5632	4208
3997696	3712	2736
4063232	4320	3552
4128768	6576	5408
4194304	9712	7696
4325376	8608	6976
4456448	10464	8544
4587520	10624	8000
4718592	4768	4064
4849664	9136	6976
4980736	5696	4368
5111808	9504	7776
5242880	7360	6048
5373952	9120	7760
5505024	5616	4240
5636096	5328	4320
5767168	6832	5168
5898240	9664	7520
6029312	9168	7056
6160384	8736	6960
6291456	6400	5216
6422528	5152	3968
6553600	6608	5296
6684672	4880	4016
6815744	1392	832
6946816	1424	880
7077888	4464	3584
7208960	3808	2640
7340032	5280	3744
7471104	2400	1696
7602176	7072	5296
7733248	2496	1760
7864320	2720	2032
7995392	2384	1728
8126464	3312	2720
8257536	1600	1136
8388608	4592	3328
8650752	4960	3456
8912896	5792	4384
9175040	4320	3488
9437184	3680	2624
9699328	4496	3424
9961472	7248	5664
10223616	3216	2544
10485760	7200	5392
10747904	2896	2272
11010048	4304	3376
11272192	7872	6032
11534336	2640	1664
11796480	2336	1744
12058624	1744	1200
12320768	2656	1872
12582912	1632	1072
12845056	1696	1248
13107200	1872	1184
13369344	1888	1392
13631488	1312	864
13893632	1456	848
14155776	1376	944
14417920	1392	1072
14680064	1440	1104
14942208	1920	1472
15204352	1792	1152
15466496	1504	1056
15728640	1360	832
15990784	2160	1488
16252928	1424	1008
16515072	1632	1088
16777216	3808	2304
17301504	2736	1680
17825792	3072	1792
18350080	3904	2768
18874368	2640	1584
19398656	2816	1968
19922944	3072	2032
20447232	3184	2320
20971520	2512	1680
21495808	2768	2048
22020096	2960	2240
22544384	2576	1568
23068672	3056	1952
23592960	2864	1648
24117248	2688	1984
24641536	2128	1440
25165824	2992	1936
25690112	1696	1008
26214400	1568	880
26738688	4112	3280
27262976	1840	1264
27787264	1520	800
28311552	2000	1232
28835840	2064	1200
29360128	1728	864
29884416	5072	3440
30408704	2848	2000
30932992	2928	1856
31457280	1936	1312
31981568	1248	704
32505856	1760	1088
33030144	2304	1616
33554432	3152	1424
34603008	5168	3360
35651584	6752	4992
36700160	3264	2112
37748736	3296	1520
38797312	3648	1936
39845888	7088	4800
40894464	2544	1440
41943040	2656	1392
42991616	2704	1376
44040192	3600	1936
45088768	2928	1360
46137344	4816	3120
47185920	3184	2000
48234496	3040	2016
49283072	2368	1664
50331648	2848	1392
51380224	2480	1136
52428800	2224	960
53477376	2544	1152
54525952	2304	1008
55574528	2592	1344
56623104	2080	992
57671680	3024	1728
58720256	2640	1040
59768832	2240	1120
60817408	2704	1232
61865984	1696	928
62914560	2960	1904
63963136	2304	1280
65011712	2816	1568
66060288	2288	1184
67108864	6016	3792
69206016	5952	3296
71303168	5680	3248
73400320	3792	1792
75497472	4656	2128
77594624	4144	1696
79691776	3488	1664
81788928	5728	3344
83886080	3664	1792
85983232	4976	2576
88080384	4272	2144
90177536	5008	3104
92274688	4912	2880
94371840	4656	2480
96468992	4752	2272
98566144	4224	2320
100663296	4288	2496
102760448	4480	2192
104857600	4416	2464
106954752	3776	2016
109051904	4240	1968
111149056	3680	1696
113246208	3584	1920
115343360	3120	1280
117440512	3072	1216
119537664	3488	1648
121634816	3824	1616
123731968	3408	1760
125829120	3840	2144
127926272	2960	1344
130023424	3808	1840
132120576	3168	1456
134217728	6032	3520
138412032	4368	3760
142606336	4016	3664
146800640	3696	3408
150994944	3696	3344
155189248	3152	2864
159383552	2752	2480
163577856	2672	2528
167772160	2304	1984
171966464	2464	2368
176160768	2720	2480
180355072	2688	2496
184549376	2432	2288
188743680	2720	2560
192937984	7488	6048
197132288	1728	1648
201326592	3648	3296
205520896	2896	2560
209715200	3616	3216
213909504	2816	2560
218103808	3120	2768
222298112	2592	2304
226492416	5696	4496
230686720	3120	2752
234881024	2560	2256
239075328	2752	2512
243269632	1440	1280
247463936	2176	1952
251658240	1952	1760
255852544	2000	1696
260046848	1936	1664
264241152	1696	1440
268435456	4592	4048
276824064	3632	3232
285212672	3136	2624
293601280	2720	2336
301989888	2368	2144
310378496	3584	3072
318767104	2448	2160
327155712	3312	2768
335544320	2864	2496
343932928	4960	4096
352321536	3872	3376
360710144	3904	3184
369098752	2960	2384
377487360	2544	2080
385875968	2176	1856
394264576	112	112
402653184	64	64
411041792	0	0
419430400	0	0
427819008	0	0
436207616	0	0
444596224	64	64
452984832	0	0
461373440	0	0
469762048	16	16
478150656	0	0
486539264	16	0
494927872	0	0
503316480	0	0
511705088	0	0
520093696	0	0
528482304	0	0
536870912	0	0
553648128	0	0
570425344	0	0
587202560	0	0
603979776	0	0
620756992	0	0
637534208	0	0
654311424	0	0
671088640	0	0
687865856	0	0
704643072	0	0
721420288	0	0
738197504	0	0
754974720	0	0
771751936	0	0
788529152	0	0
805306368	0	0
822083584	0	0
838860800	0	0
855638016	0	0
872415232	0	0
889192448	0	0
905969664	0	0
922746880	0	0
939524096	0	0
956301312	0	0
973078528	0	0
989855744	0	0
1006632960	0	0
1023410176	0	0
1040187392	0	0
1056964608	0	0
1073741824	0	0
1107296256	0	0
1140850688	0	0
1174405120	0	0
1207959552	0	0
1241513984	0	0
1275068416	0	0
1308622848	0	0
1342177280	0	0
1375731712	0	0
1409286144	0	0
1442840576	0	0
1476395008	0	0
1509949440	0	0
1543503872	0	0
1577058304	0	0
1610612736	0	0
1644167168	0	0
1677721600	0	0
1711276032	0	0
1744830464	0	0
1778384896	0	0
1811939328	0	0
1845493760	0	0
1879048192	0	0
1912602624	0	0
1946157056	0	0
1979711488	0	0
2013265920	0	0
2046820352	0	0
2080374784	0	0
2113929216	0	0
2147483648	0	0
2214592512	0	0
2281701376	0	0
2348810240	0	0
2415919104	0	0
2483027968	0	0
2550136832	0	0
2617245696	0	0
2684354560	0	0
2751463424	0	0
2818572288	0	0
2885681152	0	0
2952790016	0	0
3019898880	0	0
3087007744	0	0
3154116608	0	0
3221225472	0	0
3288334336	0	0
3355443200	0	0
3422552064	0	0
3489660928	0	0
3556769792	0	0
3623878656	0	0
3690987520	0	0
3758096384	0	0
3825205248	0	0
3892314112	0	0
3959422976	0	0
4026531840	0	0
4093640704	0	0
4160749568	0	0
4227858432	0	0
~~~~~~~~~~Reuse Distance Profiler output end~~~~~~~~~~

DRAM Statistics
 CHANNEL 0
 RQ ROW_BUFFER_HIT:     172701  ROW_BUFFER_MISS:     913481
 DBUS AVG_CONGESTED_CYCLE:    3.97698
 WQ ROW_BUFFER_HIT:     190478  ROW_BUFFER_MISS:     835135  FULL:          0


CPU 0 Branch Prediction Accuracy: 87.4033% MPKI: 24.2475 Average ROB Occupancy at Mispredict: 16.2298
Branch type MPKI
BRANCH_DIRECT_JUMP: 0.000561333
BRANCH_INDIRECT: 0.000138
BRANCH_CONDITIONAL: 24.2027
BRANCH_DIRECT_CALL: 0.00136267
BRANCH_INDIRECT_CALL: 0.0390093
BRANCH_RETURN: 0.003664

