
*** ChampSim Multicore Out-of-Order Simulator ***

Warmup Instructions: 500000000
Simulation Instructions: 1500000000
Number of CPUs: 1
Off-chip DRAM Size: 4 GiB Channels: 1 Width: 64-bit Data Rate: 3200 MT/s

VirtualMemory physical capacity: 8588881920 num_ppages: 2096895
VirtualMemory page size: 4096 log2_page_size: 12

CPU 0 runs traces/450.soplex-247B.champsimtrace.xz
CPU 0 Bimodal branch predictor
Basic BTB sets: 1024 ways: 8 indirect buffer size: 4096 RAS size: 64
Initializing LRU.
Initializing LRU.
Initializing LRU.
Initializing LRU.
Initializing rdLRU.
Initializing LRU.
Initializing LRU.
Heartbeat CPU 0 instructions: 10000000 cycles: 3571156 heartbeat IPC: 2.80021 cumulative IPC: 2.80021 (Simulation time: 0 hr 0 min 54 sec) 
Heartbeat CPU 0 instructions: 20000000 cycles: 6833282 heartbeat IPC: 3.06549 cumulative IPC: 2.92685 (Simulation time: 0 hr 1 min 41 sec) 
Heartbeat CPU 0 instructions: 30000002 cycles: 10086852 heartbeat IPC: 3.07355 cumulative IPC: 2.97417 (Simulation time: 0 hr 2 min 33 sec) 
Heartbeat CPU 0 instructions: 40000000 cycles: 13313519 heartbeat IPC: 3.09917 cumulative IPC: 3.00446 (Simulation time: 0 hr 3 min 33 sec) 
Heartbeat CPU 0 instructions: 50000004 cycles: 16539099 heartbeat IPC: 3.10022 cumulative IPC: 3.02314 (Simulation time: 0 hr 4 min 35 sec) 
Heartbeat CPU 0 instructions: 60000000 cycles: 19765567 heartbeat IPC: 3.09936 cumulative IPC: 3.03558 (Simulation time: 0 hr 5 min 30 sec) 
Heartbeat CPU 0 instructions: 70000003 cycles: 22955165 heartbeat IPC: 3.13519 cumulative IPC: 3.04942 (Simulation time: 0 hr 6 min 13 sec) 
Heartbeat CPU 0 instructions: 80000000 cycles: 26193935 heartbeat IPC: 3.08759 cumulative IPC: 3.05414 (Simulation time: 0 hr 6 min 58 sec) 
Heartbeat CPU 0 instructions: 90000001 cycles: 29465834 heartbeat IPC: 3.05633 cumulative IPC: 3.05438 (Simulation time: 0 hr 7 min 44 sec) 
Heartbeat CPU 0 instructions: 100000004 cycles: 32740052 heartbeat IPC: 3.05417 cumulative IPC: 3.05436 (Simulation time: 0 hr 8 min 30 sec) 
Heartbeat CPU 0 instructions: 110000003 cycles: 36006674 heartbeat IPC: 3.06127 cumulative IPC: 3.05499 (Simulation time: 0 hr 9 min 20 sec) 
Heartbeat CPU 0 instructions: 120000001 cycles: 39595475 heartbeat IPC: 2.78645 cumulative IPC: 3.03065 (Simulation time: 0 hr 10 min 15 sec) 
Heartbeat CPU 0 instructions: 130000001 cycles: 42765887 heartbeat IPC: 3.15416 cumulative IPC: 3.03981 (Simulation time: 0 hr 10 min 58 sec) 
Heartbeat CPU 0 instructions: 140000002 cycles: 45880125 heartbeat IPC: 3.21106 cumulative IPC: 3.05143 (Simulation time: 0 hr 11 min 41 sec) 
Heartbeat CPU 0 instructions: 150000002 cycles: 48995374 heartbeat IPC: 3.21002 cumulative IPC: 3.06151 (Simulation time: 0 hr 12 min 23 sec) 
Heartbeat CPU 0 instructions: 160000000 cycles: 52061200 heartbeat IPC: 3.26176 cumulative IPC: 3.07331 (Simulation time: 0 hr 13 min 4 sec) 
Heartbeat CPU 0 instructions: 170000004 cycles: 55256612 heartbeat IPC: 3.12949 cumulative IPC: 3.07656 (Simulation time: 0 hr 13 min 48 sec) 
Heartbeat CPU 0 instructions: 180000003 cycles: 58436057 heartbeat IPC: 3.1452 cumulative IPC: 3.08029 (Simulation time: 0 hr 14 min 32 sec) 
Heartbeat CPU 0 instructions: 190000000 cycles: 61574348 heartbeat IPC: 3.18645 cumulative IPC: 3.0857 (Simulation time: 0 hr 15 min 16 sec) 
Heartbeat CPU 0 instructions: 200000001 cycles: 64736630 heartbeat IPC: 3.16227 cumulative IPC: 3.08944 (Simulation time: 0 hr 16 min 4 sec) 
Heartbeat CPU 0 instructions: 210000002 cycles: 67895353 heartbeat IPC: 3.16584 cumulative IPC: 3.093 (Simulation time: 0 hr 16 min 49 sec) 
Heartbeat CPU 0 instructions: 220000004 cycles: 71139951 heartbeat IPC: 3.08205 cumulative IPC: 3.0925 (Simulation time: 0 hr 17 min 39 sec) 
Heartbeat CPU 0 instructions: 230000003 cycles: 74654328 heartbeat IPC: 2.84545 cumulative IPC: 3.08087 (Simulation time: 0 hr 18 min 29 sec) 
Heartbeat CPU 0 instructions: 240000000 cycles: 77757204 heartbeat IPC: 3.22282 cumulative IPC: 3.08653 (Simulation time: 0 hr 19 min 10 sec) 
Heartbeat CPU 0 instructions: 250000004 cycles: 80939202 heartbeat IPC: 3.14268 cumulative IPC: 3.08874 (Simulation time: 0 hr 19 min 52 sec) 
Heartbeat CPU 0 instructions: 260000003 cycles: 84092521 heartbeat IPC: 3.17126 cumulative IPC: 3.09183 (Simulation time: 0 hr 20 min 34 sec) 
Heartbeat CPU 0 instructions: 270000003 cycles: 87253809 heartbeat IPC: 3.16327 cumulative IPC: 3.09442 (Simulation time: 0 hr 21 min 17 sec) 
Heartbeat CPU 0 instructions: 280000003 cycles: 90404518 heartbeat IPC: 3.17389 cumulative IPC: 3.09719 (Simulation time: 0 hr 22 min 0 sec) 
Heartbeat CPU 0 instructions: 290000004 cycles: 93517447 heartbeat IPC: 3.21241 cumulative IPC: 3.10103 (Simulation time: 0 hr 22 min 43 sec) 
Heartbeat CPU 0 instructions: 300000003 cycles: 96634690 heartbeat IPC: 3.20796 cumulative IPC: 3.10448 (Simulation time: 0 hr 23 min 32 sec) 
Heartbeat CPU 0 instructions: 310000001 cycles: 99761056 heartbeat IPC: 3.1986 cumulative IPC: 3.10742 (Simulation time: 0 hr 24 min 21 sec) 
Heartbeat CPU 0 instructions: 320000001 cycles: 102954383 heartbeat IPC: 3.13153 cumulative IPC: 3.10817 (Simulation time: 0 hr 25 min 14 sec) 
Heartbeat CPU 0 instructions: 330000001 cycles: 106383926 heartbeat IPC: 2.91584 cumulative IPC: 3.10197 (Simulation time: 0 hr 26 min 12 sec) 
Heartbeat CPU 0 instructions: 340000002 cycles: 109684890 heartbeat IPC: 3.02942 cumulative IPC: 3.09979 (Simulation time: 0 hr 27 min 0 sec) 
Heartbeat CPU 0 instructions: 350000002 cycles: 112802025 heartbeat IPC: 3.20807 cumulative IPC: 3.10278 (Simulation time: 0 hr 27 min 44 sec) 
Heartbeat CPU 0 instructions: 360000002 cycles: 115927030 heartbeat IPC: 3.19999 cumulative IPC: 3.1054 (Simulation time: 0 hr 28 min 27 sec) 
Heartbeat CPU 0 instructions: 370000001 cycles: 119052019 heartbeat IPC: 3.20001 cumulative IPC: 3.10789 (Simulation time: 0 hr 29 min 11 sec) 
Heartbeat CPU 0 instructions: 380000000 cycles: 122177002 heartbeat IPC: 3.20002 cumulative IPC: 3.11024 (Simulation time: 0 hr 29 min 55 sec) 
Heartbeat CPU 0 instructions: 390000003 cycles: 125301982 heartbeat IPC: 3.20002 cumulative IPC: 3.11248 (Simulation time: 0 hr 30 min 39 sec) 
Heartbeat CPU 0 instructions: 400000000 cycles: 128426954 heartbeat IPC: 3.20003 cumulative IPC: 3.11461 (Simulation time: 0 hr 31 min 23 sec) 
Heartbeat CPU 0 instructions: 410000003 cycles: 131551925 heartbeat IPC: 3.20003 cumulative IPC: 3.11664 (Simulation time: 0 hr 32 min 7 sec) 
Heartbeat CPU 0 instructions: 420000003 cycles: 134676887 heartbeat IPC: 3.20004 cumulative IPC: 3.11858 (Simulation time: 0 hr 32 min 52 sec) 
Heartbeat CPU 0 instructions: 430000001 cycles: 137801836 heartbeat IPC: 3.20005 cumulative IPC: 3.12042 (Simulation time: 0 hr 33 min 47 sec) 
Heartbeat CPU 0 instructions: 440000001 cycles: 141116609 heartbeat IPC: 3.0168 cumulative IPC: 3.11799 (Simulation time: 0 hr 34 min 40 sec) 
Heartbeat CPU 0 instructions: 450000001 cycles: 144625846 heartbeat IPC: 2.84962 cumulative IPC: 3.11148 (Simulation time: 0 hr 35 min 37 sec) 
Heartbeat CPU 0 instructions: 460000000 cycles: 147834402 heartbeat IPC: 3.11667 cumulative IPC: 3.11159 (Simulation time: 0 hr 36 min 21 sec) 
Heartbeat CPU 0 instructions: 470000000 cycles: 150962183 heartbeat IPC: 3.19715 cumulative IPC: 3.11336 (Simulation time: 0 hr 37 min 4 sec) 
Heartbeat CPU 0 instructions: 480000004 cycles: 154088291 heartbeat IPC: 3.19887 cumulative IPC: 3.1151 (Simulation time: 0 hr 37 min 45 sec) 
Heartbeat CPU 0 instructions: 490000001 cycles: 157214495 heartbeat IPC: 3.19877 cumulative IPC: 3.11676 (Simulation time: 0 hr 38 min 27 sec) 
Heartbeat CPU 0 instructions: 500000002 cycles: 160347090 heartbeat IPC: 3.19224 cumulative IPC: 3.11824 (Simulation time: 0 hr 39 min 8 sec) 

Warmup complete CPU 0 instructions: 500000002 cycles: 160347090 (Simulation time: 0 hr 39 min 8 sec) 

Heartbeat CPU 0 instructions: 510000000 cycles: 193503120 heartbeat IPC: 0.301604 cumulative IPC: 0.301604 (Simulation time: 0 hr 40 min 57 sec) 
Heartbeat CPU 0 instructions: 520000001 cycles: 226654214 heartbeat IPC: 0.301649 cumulative IPC: 0.301627 (Simulation time: 0 hr 42 min 48 sec) 
Heartbeat CPU 0 instructions: 530000000 cycles: 259822707 heartbeat IPC: 0.301491 cumulative IPC: 0.301581 (Simulation time: 0 hr 44 min 59 sec) 
Heartbeat CPU 0 instructions: 540000004 cycles: 292964337 heartbeat IPC: 0.301735 cumulative IPC: 0.30162 (Simulation time: 0 hr 47 min 7 sec) 
Heartbeat CPU 0 instructions: 550000000 cycles: 325782063 heartbeat IPC: 0.304713 cumulative IPC: 0.302234 (Simulation time: 0 hr 49 min 26 sec) 
Heartbeat CPU 0 instructions: 560000001 cycles: 373068388 heartbeat IPC: 0.211478 cumulative IPC: 0.282059 (Simulation time: 0 hr 51 min 35 sec) 
Heartbeat CPU 0 instructions: 570000001 cycles: 396075354 heartbeat IPC: 0.434651 cumulative IPC: 0.296952 (Simulation time: 0 hr 54 min 10 sec) 
Heartbeat CPU 0 instructions: 580000001 cycles: 431584580 heartbeat IPC: 0.281617 cumulative IPC: 0.294944 (Simulation time: 0 hr 56 min 15 sec) 
Heartbeat CPU 0 instructions: 590000000 cycles: 465085803 heartbeat IPC: 0.298497 cumulative IPC: 0.295335 (Simulation time: 0 hr 58 min 7 sec) 
Heartbeat CPU 0 instructions: 600000003 cycles: 498770958 heartbeat IPC: 0.296867 cumulative IPC: 0.295487 (Simulation time: 1 hr 0 min 1 sec) 
Heartbeat CPU 0 instructions: 610000000 cycles: 532467730 heartbeat IPC: 0.296764 cumulative IPC: 0.295603 (Simulation time: 1 hr 1 min 55 sec) 
Heartbeat CPU 0 instructions: 620000003 cycles: 567234090 heartbeat IPC: 0.287634 cumulative IPC: 0.294922 (Simulation time: 1 hr 4 min 11 sec) 
Heartbeat CPU 0 instructions: 630000004 cycles: 601957828 heartbeat IPC: 0.287987 cumulative IPC: 0.294377 (Simulation time: 1 hr 6 min 25 sec) 
Heartbeat CPU 0 instructions: 640000004 cycles: 636871914 heartbeat IPC: 0.286417 cumulative IPC: 0.293794 (Simulation time: 1 hr 8 min 20 sec) 
Heartbeat CPU 0 instructions: 650000001 cycles: 671236660 heartbeat IPC: 0.290996 cumulative IPC: 0.293606 (Simulation time: 1 hr 10 min 11 sec) 
Heartbeat CPU 0 instructions: 660000004 cycles: 706239145 heartbeat IPC: 0.285694 cumulative IPC: 0.293098 (Simulation time: 1 hr 12 min 13 sec) 
Heartbeat CPU 0 instructions: 670000003 cycles: 741916215 heartbeat IPC: 0.280292 cumulative IPC: 0.292313 (Simulation time: 1 hr 14 min 33 sec) 
Heartbeat CPU 0 instructions: 680000000 cycles: 795509074 heartbeat IPC: 0.186592 cumulative IPC: 0.283392 (Simulation time: 1 hr 18 min 12 sec) 
Heartbeat CPU 0 instructions: 690000000 cycles: 819328219 heartbeat IPC: 0.41983 cumulative IPC: 0.288324 (Simulation time: 1 hr 19 min 48 sec) 
Heartbeat CPU 0 instructions: 700000001 cycles: 852030269 heartbeat IPC: 0.305791 cumulative IPC: 0.28915 (Simulation time: 1 hr 21 min 42 sec) 
Heartbeat CPU 0 instructions: 710000001 cycles: 884564359 heartbeat IPC: 0.30737 cumulative IPC: 0.289968 (Simulation time: 1 hr 23 min 48 sec) 
Heartbeat CPU 0 instructions: 720000001 cycles: 919899398 heartbeat IPC: 0.283005 cumulative IPC: 0.289644 (Simulation time: 1 hr 26 min 12 sec) 
Heartbeat CPU 0 instructions: 730000002 cycles: 953952398 heartbeat IPC: 0.29366 cumulative IPC: 0.289817 (Simulation time: 1 hr 28 min 15 sec) 
Heartbeat CPU 0 instructions: 740000004 cycles: 987665109 heartbeat IPC: 0.296624 cumulative IPC: 0.290094 (Simulation time: 1 hr 30 min 18 sec) 
Heartbeat CPU 0 instructions: 750000003 cycles: 1021703961 heartbeat IPC: 0.293782 cumulative IPC: 0.29024 (Simulation time: 1 hr 32 min 52 sec) 
Heartbeat CPU 0 instructions: 760000000 cycles: 1056885895 heartbeat IPC: 0.284237 cumulative IPC: 0.290004 (Simulation time: 1 hr 35 min 0 sec) 
Heartbeat CPU 0 instructions: 770000002 cycles: 1092141466 heartbeat IPC: 0.283643 cumulative IPC: 0.289764 (Simulation time: 1 hr 37 min 28 sec) 
Heartbeat CPU 0 instructions: 780000001 cycles: 1126230973 heartbeat IPC: 0.293345 cumulative IPC: 0.28989 (Simulation time: 1 hr 39 min 27 sec) 
Heartbeat CPU 0 instructions: 790000003 cycles: 1160947829 heartbeat IPC: 0.288045 cumulative IPC: 0.289826 (Simulation time: 1 hr 41 min 30 sec) 
Heartbeat CPU 0 instructions: 800000000 cycles: 1212993667 heartbeat IPC: 0.192138 cumulative IPC: 0.284996 (Simulation time: 1 hr 44 min 32 sec) 
Heartbeat CPU 0 instructions: 810000002 cycles: 1238062777 heartbeat IPC: 0.398897 cumulative IPC: 0.287645 (Simulation time: 1 hr 46 min 2 sec) 
Heartbeat CPU 0 instructions: 820000004 cycles: 1269647116 heartbeat IPC: 0.316613 cumulative IPC: 0.28847 (Simulation time: 1 hr 47 min 52 sec) 
Heartbeat CPU 0 instructions: 830000001 cycles: 1304085165 heartbeat IPC: 0.290376 cumulative IPC: 0.288528 (Simulation time: 1 hr 49 min 59 sec) 
Heartbeat CPU 0 instructions: 840000000 cycles: 1337629221 heartbeat IPC: 0.298115 cumulative IPC: 0.288801 (Simulation time: 1 hr 52 min 22 sec) 
Heartbeat CPU 0 instructions: 850000002 cycles: 1374312387 heartbeat IPC: 0.272605 cumulative IPC: 0.288311 (Simulation time: 1 hr 54 min 27 sec) 
Heartbeat CPU 0 instructions: 860000000 cycles: 1407799970 heartbeat IPC: 0.298618 cumulative IPC: 0.288588 (Simulation time: 1 hr 56 min 20 sec) 
Heartbeat CPU 0 instructions: 870000000 cycles: 1439594960 heartbeat IPC: 0.314515 cumulative IPC: 0.289232 (Simulation time: 1 hr 58 min 10 sec) 
Heartbeat CPU 0 instructions: 880000003 cycles: 1476176748 heartbeat IPC: 0.27336 cumulative IPC: 0.288791 (Simulation time: 2 hr 0 min 16 sec) 
Heartbeat CPU 0 instructions: 890000000 cycles: 1509243613 heartbeat IPC: 0.302417 cumulative IPC: 0.289125 (Simulation time: 2 hr 2 min 9 sec) 
Heartbeat CPU 0 instructions: 900000001 cycles: 1548137924 heartbeat IPC: 0.257107 cumulative IPC: 0.288228 (Simulation time: 2 hr 4 min 5 sec) 
Heartbeat CPU 0 instructions: 910000000 cycles: 1588304037 heartbeat IPC: 0.248966 cumulative IPC: 0.287124 (Simulation time: 2 hr 5 min 59 sec) 
Heartbeat CPU 0 instructions: 920000001 cycles: 1614386686 heartbeat IPC: 0.383397 cumulative IPC: 0.28885 (Simulation time: 2 hr 7 min 56 sec) 
Heartbeat CPU 0 instructions: 930000002 cycles: 1649511750 heartbeat IPC: 0.284697 cumulative IPC: 0.288752 (Simulation time: 2 hr 9 min 47 sec) 
Heartbeat CPU 0 instructions: 940000000 cycles: 1681443462 heartbeat IPC: 0.313168 cumulative IPC: 0.289265 (Simulation time: 2 hr 11 min 30 sec) 
Heartbeat CPU 0 instructions: 950000004 cycles: 1714976828 heartbeat IPC: 0.298211 cumulative IPC: 0.289458 (Simulation time: 2 hr 13 min 33 sec) 
Heartbeat CPU 0 instructions: 960000002 cycles: 1751172189 heartbeat IPC: 0.276278 cumulative IPC: 0.289158 (Simulation time: 2 hr 15 min 27 sec) 
Heartbeat CPU 0 instructions: 970000002 cycles: 1784660132 heartbeat IPC: 0.298615 cumulative IPC: 0.289353 (Simulation time: 2 hr 17 min 33 sec) 
Heartbeat CPU 0 instructions: 980000000 cycles: 1817564860 heartbeat IPC: 0.303908 cumulative IPC: 0.289642 (Simulation time: 2 hr 19 min 34 sec) 
Heartbeat CPU 0 instructions: 990000001 cycles: 1850754169 heartbeat IPC: 0.301302 cumulative IPC: 0.289871 (Simulation time: 2 hr 21 min 36 sec) 
Heartbeat CPU 0 instructions: 1000000004 cycles: 1883617629 heartbeat IPC: 0.304289 cumulative IPC: 0.290146 (Simulation time: 2 hr 23 min 25 sec) 
Heartbeat CPU 0 instructions: 1010000000 cycles: 1918999796 heartbeat IPC: 0.282628 cumulative IPC: 0.289995 (Simulation time: 2 hr 25 min 41 sec) 
Heartbeat CPU 0 instructions: 1020000001 cycles: 1969236975 heartbeat IPC: 0.199056 cumulative IPC: 0.287469 (Simulation time: 2 hr 28 min 19 sec) 
Heartbeat CPU 0 instructions: 1030000002 cycles: 1992082500 heartbeat IPC: 0.437723 cumulative IPC: 0.289343 (Simulation time: 2 hr 29 min 59 sec) 
Heartbeat CPU 0 instructions: 1040000002 cycles: 2025732802 heartbeat IPC: 0.297174 cumulative IPC: 0.289484 (Simulation time: 2 hr 31 min 58 sec) 
Heartbeat CPU 0 instructions: 1050000004 cycles: 2059855832 heartbeat IPC: 0.293057 cumulative IPC: 0.289549 (Simulation time: 2 hr 34 min 3 sec) 
Heartbeat CPU 0 instructions: 1060000002 cycles: 2095091425 heartbeat IPC: 0.283804 cumulative IPC: 0.289444 (Simulation time: 2 hr 36 min 6 sec) 
Heartbeat CPU 0 instructions: 1070000000 cycles: 2132058763 heartbeat IPC: 0.270509 cumulative IPC: 0.289089 (Simulation time: 2 hr 38 min 13 sec) 
Heartbeat CPU 0 instructions: 1080000001 cycles: 2167505374 heartbeat IPC: 0.282114 cumulative IPC: 0.288966 (Simulation time: 2 hr 40 min 16 sec) 
Heartbeat CPU 0 instructions: 1090000000 cycles: 2201338578 heartbeat IPC: 0.295568 cumulative IPC: 0.289075 (Simulation time: 2 hr 42 min 14 sec) 
Heartbeat CPU 0 instructions: 1100000000 cycles: 2235702066 heartbeat IPC: 0.291007 cumulative IPC: 0.289107 (Simulation time: 2 hr 44 min 14 sec) 
Heartbeat CPU 0 instructions: 1110000004 cycles: 2269984429 heartbeat IPC: 0.291695 cumulative IPC: 0.289149 (Simulation time: 2 hr 46 min 17 sec) 
Heartbeat CPU 0 instructions: 1120000000 cycles: 2303889498 heartbeat IPC: 0.294941 cumulative IPC: 0.289241 (Simulation time: 2 hr 48 min 17 sec) 
Heartbeat CPU 0 instructions: 1130000003 cycles: 2355799855 heartbeat IPC: 0.19264 cumulative IPC: 0.286957 (Simulation time: 2 hr 50 min 58 sec) 
Heartbeat CPU 0 instructions: 1140000002 cycles: 2379830720 heartbeat IPC: 0.416131 cumulative IPC: 0.288355 (Simulation time: 2 hr 52 min 29 sec) 
Heartbeat CPU 0 instructions: 1150000003 cycles: 2411769359 heartbeat IPC: 0.3131 cumulative IPC: 0.288706 (Simulation time: 2 hr 54 min 18 sec) 
Heartbeat CPU 0 instructions: 1160000001 cycles: 2445827550 heartbeat IPC: 0.293615 cumulative IPC: 0.28878 (Simulation time: 2 hr 56 min 22 sec) 
Heartbeat CPU 0 instructions: 1170000001 cycles: 2477554551 heartbeat IPC: 0.315189 cumulative IPC: 0.289141 (Simulation time: 2 hr 58 min 11 sec) 
Heartbeat CPU 0 instructions: 1180000001 cycles: 2515710004 heartbeat IPC: 0.262086 cumulative IPC: 0.288703 (Simulation time: 3 hr 0 min 11 sec) 
Heartbeat CPU 0 instructions: 1190000001 cycles: 2547254986 heartbeat IPC: 0.317008 cumulative IPC: 0.289077 (Simulation time: 3 hr 1 min 52 sec) 
Heartbeat CPU 0 instructions: 1200000001 cycles: 2578680561 heartbeat IPC: 0.318212 cumulative IPC: 0.289456 (Simulation time: 3 hr 3 min 34 sec) 
Heartbeat CPU 0 instructions: 1210000000 cycles: 2614452005 heartbeat IPC: 0.279553 cumulative IPC: 0.289311 (Simulation time: 3 hr 5 min 27 sec) 
Heartbeat CPU 0 instructions: 1220000000 cycles: 2646700783 heartbeat IPC: 0.310089 cumulative IPC: 0.289581 (Simulation time: 3 hr 7 min 15 sec) 
Heartbeat CPU 0 instructions: 1230000004 cycles: 2684135337 heartbeat IPC: 0.267133 cumulative IPC: 0.289248 (Simulation time: 3 hr 9 min 10 sec) 
Heartbeat CPU 0 instructions: 1240000002 cycles: 2725433081 heartbeat IPC: 0.242144 cumulative IPC: 0.288489 (Simulation time: 3 hr 11 min 5 sec) 
Heartbeat CPU 0 instructions: 1250000001 cycles: 2751237802 heartbeat IPC: 0.387526 cumulative IPC: 0.289476 (Simulation time: 3 hr 13 min 0 sec) 
Heartbeat CPU 0 instructions: 1260000004 cycles: 2786111580 heartbeat IPC: 0.286748 cumulative IPC: 0.28944 (Simulation time: 3 hr 14 min 49 sec) 
Heartbeat CPU 0 instructions: 1270000002 cycles: 2817606824 heartbeat IPC: 0.317508 cumulative IPC: 0.289772 (Simulation time: 3 hr 16 min 29 sec) 
Heartbeat CPU 0 instructions: 1280000001 cycles: 2853445323 heartbeat IPC: 0.27903 cumulative IPC: 0.289629 (Simulation time: 3 hr 18 min 22 sec) 
Heartbeat CPU 0 instructions: 1290000004 cycles: 2886925269 heartbeat IPC: 0.298686 cumulative IPC: 0.28974 (Simulation time: 3 hr 20 min 22 sec) 
Heartbeat CPU 0 instructions: 1300000000 cycles: 2920131967 heartbeat IPC: 0.301144 cumulative IPC: 0.289878 (Simulation time: 3 hr 22 min 14 sec) 
Heartbeat CPU 0 instructions: 1310000002 cycles: 2952321219 heartbeat IPC: 0.310663 cumulative IPC: 0.290117 (Simulation time: 3 hr 24 min 4 sec) 
Heartbeat CPU 0 instructions: 1320000000 cycles: 2989844584 heartbeat IPC: 0.266501 cumulative IPC: 0.289804 (Simulation time: 3 hr 26 min 1 sec) 
Heartbeat CPU 0 instructions: 1330000002 cycles: 3021397665 heartbeat IPC: 0.316926 cumulative IPC: 0.290103 (Simulation time: 3 hr 27 min 41 sec) 
Heartbeat CPU 0 instructions: 1340000003 cycles: 3068754092 heartbeat IPC: 0.211165 cumulative IPC: 0.288818 (Simulation time: 3 hr 29 min 57 sec) 
Heartbeat CPU 0 instructions: 1350000004 cycles: 3094340524 heartbeat IPC: 0.390832 cumulative IPC: 0.289708 (Simulation time: 3 hr 31 min 25 sec) 
Heartbeat CPU 0 instructions: 1360000003 cycles: 3125808322 heartbeat IPC: 0.317785 cumulative IPC: 0.290005 (Simulation time: 3 hr 33 min 14 sec) 
Heartbeat CPU 0 instructions: 1370000001 cycles: 3161045928 heartbeat IPC: 0.283788 cumulative IPC: 0.289932 (Simulation time: 3 hr 35 min 15 sec) 
Heartbeat CPU 0 instructions: 1380000000 cycles: 3192936629 heartbeat IPC: 0.313571 cumulative IPC: 0.290181 (Simulation time: 3 hr 37 min 11 sec) 
Heartbeat CPU 0 instructions: 1390000000 cycles: 3227546163 heartbeat IPC: 0.288938 cumulative IPC: 0.290167 (Simulation time: 3 hr 39 min 0 sec) 
Heartbeat CPU 0 instructions: 1400000004 cycles: 3261360760 heartbeat IPC: 0.29573 cumulative IPC: 0.290228 (Simulation time: 3 hr 40 min 49 sec) 
Heartbeat CPU 0 instructions: 1410000004 cycles: 3293961624 heartbeat IPC: 0.30674 cumulative IPC: 0.290399 (Simulation time: 3 hr 42 min 35 sec) 
Heartbeat CPU 0 instructions: 1420000004 cycles: 3327034758 heartbeat IPC: 0.30236 cumulative IPC: 0.290524 (Simulation time: 3 hr 44 min 22 sec) 
Heartbeat CPU 0 instructions: 1430000001 cycles: 3360415608 heartbeat IPC: 0.299573 cumulative IPC: 0.290619 (Simulation time: 3 hr 46 min 10 sec) 
Heartbeat CPU 0 instructions: 1440000004 cycles: 3393341977 heartbeat IPC: 0.303708 cumulative IPC: 0.290752 (Simulation time: 3 hr 47 min 56 sec) 
Heartbeat CPU 0 instructions: 1450000000 cycles: 3426162823 heartbeat IPC: 0.304684 cumulative IPC: 0.290892 (Simulation time: 3 hr 49 min 46 sec) 
Heartbeat CPU 0 instructions: 1460000001 cycles: 3475103216 heartbeat IPC: 0.20433 cumulative IPC: 0.289614 (Simulation time: 3 hr 52 min 11 sec) 
Heartbeat CPU 0 instructions: 1470000003 cycles: 3498601041 heartbeat IPC: 0.425571 cumulative IPC: 0.290571 (Simulation time: 3 hr 53 min 55 sec) 
Heartbeat CPU 0 instructions: 1480000000 cycles: 3533411716 heartbeat IPC: 0.287268 cumulative IPC: 0.290537 (Simulation time: 3 hr 55 min 57 sec) 
Heartbeat CPU 0 instructions: 1490000002 cycles: 3568344348 heartbeat IPC: 0.286265 cumulative IPC: 0.290493 (Simulation time: 3 hr 58 min 1 sec) 
Heartbeat CPU 0 instructions: 1500000000 cycles: 3602943428 heartbeat IPC: 0.289025 cumulative IPC: 0.290478 (Simulation time: 4 hr 0 min 5 sec) 
Heartbeat CPU 0 instructions: 1510000003 cycles: 3637391471 heartbeat IPC: 0.290292 cumulative IPC: 0.290477 (Simulation time: 4 hr 2 min 5 sec) 
Heartbeat CPU 0 instructions: 1520000000 cycles: 3674843375 heartbeat IPC: 0.267009 cumulative IPC: 0.290227 (Simulation time: 4 hr 4 min 1 sec) 
Heartbeat CPU 0 instructions: 1530000000 cycles: 3710235528 heartbeat IPC: 0.282549 cumulative IPC: 0.29015 (Simulation time: 4 hr 5 min 53 sec) 
Heartbeat CPU 0 instructions: 1540000001 cycles: 3742944943 heartbeat IPC: 0.305722 cumulative IPC: 0.290292 (Simulation time: 4 hr 7 min 37 sec) 
Heartbeat CPU 0 instructions: 1550000003 cycles: 3775662155 heartbeat IPC: 0.30565 cumulative IPC: 0.290431 (Simulation time: 4 hr 9 min 19 sec) 
Heartbeat CPU 0 instructions: 1560000003 cycles: 3808680254 heartbeat IPC: 0.302864 cumulative IPC: 0.290544 (Simulation time: 4 hr 11 min 4 sec) 
Heartbeat CPU 0 instructions: 1570000000 cycles: 3860312616 heartbeat IPC: 0.193677 cumulative IPC: 0.289192 (Simulation time: 4 hr 13 min 47 sec) 
Heartbeat CPU 0 instructions: 1580000003 cycles: 3884525808 heartbeat IPC: 0.412998 cumulative IPC: 0.289997 (Simulation time: 4 hr 15 min 17 sec) 
Heartbeat CPU 0 instructions: 1590000000 cycles: 3916292427 heartbeat IPC: 0.314796 cumulative IPC: 0.290207 (Simulation time: 4 hr 17 min 4 sec) 
Heartbeat CPU 0 instructions: 1600000004 cycles: 3950284920 heartbeat IPC: 0.294183 cumulative IPC: 0.290242 (Simulation time: 4 hr 18 min 54 sec) 
Heartbeat CPU 0 instructions: 1610000003 cycles: 3982907682 heartbeat IPC: 0.306534 cumulative IPC: 0.290381 (Simulation time: 4 hr 20 min 45 sec) 
Heartbeat CPU 0 instructions: 1620000000 cycles: 4016831926 heartbeat IPC: 0.294774 cumulative IPC: 0.29042 (Simulation time: 4 hr 22 min 33 sec) 
Heartbeat CPU 0 instructions: 1630000000 cycles: 4050753099 heartbeat IPC: 0.294801 cumulative IPC: 0.290458 (Simulation time: 4 hr 24 min 25 sec) 
Heartbeat CPU 0 instructions: 1640000003 cycles: 4088159358 heartbeat IPC: 0.267335 cumulative IPC: 0.290238 (Simulation time: 4 hr 26 min 22 sec) 
Heartbeat CPU 0 instructions: 1650000000 cycles: 4121395952 heartbeat IPC: 0.300873 cumulative IPC: 0.290327 (Simulation time: 4 hr 28 min 6 sec) 
Heartbeat CPU 0 instructions: 1660000001 cycles: 4155877761 heartbeat IPC: 0.290008 cumulative IPC: 0.290324 (Simulation time: 4 hr 30 min 5 sec) 
Heartbeat CPU 0 instructions: 1670000001 cycles: 4190645866 heartbeat IPC: 0.28762 cumulative IPC: 0.290301 (Simulation time: 4 hr 32 min 7 sec) 
Heartbeat CPU 0 instructions: 1680000001 cycles: 4234786873 heartbeat IPC: 0.226547 cumulative IPC: 0.28961 (Simulation time: 4 hr 35 min 7 sec) 
Heartbeat CPU 0 instructions: 1690000003 cycles: 4269626914 heartbeat IPC: 0.287026 cumulative IPC: 0.289588 (Simulation time: 4 hr 36 min 37 sec) 
Heartbeat CPU 0 instructions: 1700000003 cycles: 4299901592 heartbeat IPC: 0.330309 cumulative IPC: 0.289886 (Simulation time: 4 hr 38 min 42 sec) 
Heartbeat CPU 0 instructions: 1710000000 cycles: 4332868308 heartbeat IPC: 0.303336 cumulative IPC: 0.289993 (Simulation time: 4 hr 40 min 41 sec) 
Heartbeat CPU 0 instructions: 1720000001 cycles: 4365522378 heartbeat IPC: 0.306241 cumulative IPC: 0.290119 (Simulation time: 4 hr 42 min 38 sec) 
Heartbeat CPU 0 instructions: 1730000004 cycles: 4399046482 heartbeat IPC: 0.298293 cumulative IPC: 0.290183 (Simulation time: 4 hr 44 min 29 sec) 
Heartbeat CPU 0 instructions: 1740000003 cycles: 4432314262 heartbeat IPC: 0.300591 cumulative IPC: 0.290264 (Simulation time: 4 hr 46 min 17 sec) 
Heartbeat CPU 0 instructions: 1750000001 cycles: 4467500930 heartbeat IPC: 0.284198 cumulative IPC: 0.290215 (Simulation time: 4 hr 48 min 17 sec) 
Heartbeat CPU 0 instructions: 1760000001 cycles: 4501353553 heartbeat IPC: 0.295398 cumulative IPC: 0.290255 (Simulation time: 4 hr 50 min 20 sec) 
Heartbeat CPU 0 instructions: 1770000000 cycles: 4534447740 heartbeat IPC: 0.302168 cumulative IPC: 0.290345 (Simulation time: 4 hr 52 min 19 sec) 
Heartbeat CPU 0 instructions: 1780000001 cycles: 4569010187 heartbeat IPC: 0.289331 cumulative IPC: 0.290337 (Simulation time: 4 hr 54 min 22 sec) 
Heartbeat CPU 0 instructions: 1790000001 cycles: 4604675790 heartbeat IPC: 0.280382 cumulative IPC: 0.290258 (Simulation time: 4 hr 56 min 30 sec) 
Heartbeat CPU 0 instructions: 1800000003 cycles: 4636427462 heartbeat IPC: 0.314944 cumulative IPC: 0.290433 (Simulation time: 4 hr 58 min 30 sec) 
Heartbeat CPU 0 instructions: 1810000001 cycles: 4677113908 heartbeat IPC: 0.245782 cumulative IPC: 0.29003 (Simulation time: 5 hr 0 min 24 sec) 
Heartbeat CPU 0 instructions: 1820000000 cycles: 4716634311 heartbeat IPC: 0.253034 cumulative IPC: 0.28971 (Simulation time: 5 hr 2 min 44 sec) 
Heartbeat CPU 0 instructions: 1830000001 cycles: 4741628519 heartbeat IPC: 0.400093 cumulative IPC: 0.290312 (Simulation time: 5 hr 4 min 35 sec) 
Heartbeat CPU 0 instructions: 1840000001 cycles: 4775102485 heartbeat IPC: 0.29874 cumulative IPC: 0.290373 (Simulation time: 5 hr 6 min 31 sec) 
Heartbeat CPU 0 instructions: 1850000002 cycles: 4808964808 heartbeat IPC: 0.295314 cumulative IPC: 0.290409 (Simulation time: 5 hr 8 min 24 sec) 
Heartbeat CPU 0 instructions: 1860000004 cycles: 4842798368 heartbeat IPC: 0.295565 cumulative IPC: 0.290446 (Simulation time: 5 hr 10 min 15 sec) 
Heartbeat CPU 0 instructions: 1870000003 cycles: 4876536914 heartbeat IPC: 0.296397 cumulative IPC: 0.290489 (Simulation time: 5 hr 12 min 1 sec) 
Heartbeat CPU 0 instructions: 1880000002 cycles: 4907364708 heartbeat IPC: 0.324383 cumulative IPC: 0.290709 (Simulation time: 5 hr 13 min 44 sec) 
Heartbeat CPU 0 instructions: 1890000002 cycles: 4940522630 heartbeat IPC: 0.301587 cumulative IPC: 0.290784 (Simulation time: 5 hr 15 min 31 sec) 
Heartbeat CPU 0 instructions: 1900000000 cycles: 4971275811 heartbeat IPC: 0.32517 cumulative IPC: 0.291004 (Simulation time: 5 hr 17 min 14 sec) 
Heartbeat CPU 0 instructions: 1910000000 cycles: 5004987974 heartbeat IPC: 0.296629 cumulative IPC: 0.291043 (Simulation time: 5 hr 19 min 4 sec) 
Heartbeat CPU 0 instructions: 1920000000 cycles: 5038445468 heartbeat IPC: 0.298887 cumulative IPC: 0.291097 (Simulation time: 5 hr 20 min 55 sec) 
Heartbeat CPU 0 instructions: 1930000000 cycles: 5071368839 heartbeat IPC: 0.303736 cumulative IPC: 0.291182 (Simulation time: 5 hr 22 min 44 sec) 
Heartbeat CPU 0 instructions: 1940000002 cycles: 5110225226 heartbeat IPC: 0.257358 cumulative IPC: 0.290916 (Simulation time: 5 hr 24 min 49 sec) 
Heartbeat CPU 0 instructions: 1950000000 cycles: 5146443488 heartbeat IPC: 0.276104 cumulative IPC: 0.290809 (Simulation time: 5 hr 26 min 32 sec) 
Heartbeat CPU 0 instructions: 1960000003 cycles: 5176547880 heartbeat IPC: 0.332178 cumulative IPC: 0.291057 (Simulation time: 5 hr 28 min 35 sec) 
Heartbeat CPU 0 instructions: 1970000003 cycles: 5205658086 heartbeat IPC: 0.343522 cumulative IPC: 0.29136 (Simulation time: 5 hr 30 min 11 sec) 
Heartbeat CPU 0 instructions: 1980000000 cycles: 5238929881 heartbeat IPC: 0.300555 cumulative IPC: 0.29142 (Simulation time: 5 hr 32 min 7 sec) 
Heartbeat CPU 0 instructions: 1990000001 cycles: 5272909660 heartbeat IPC: 0.294293 cumulative IPC: 0.291439 (Simulation time: 5 hr 33 min 56 sec) 
*** Reached end of trace: traces/450.soplex-247B.champsimtrace.xz
Heartbeat CPU 0 instructions: 2000000000 cycles: 5307162630 heartbeat IPC: 0.291945 cumulative IPC: 0.291442 (Simulation time: 5 hr 35 min 51 sec) 
Finished CPU 0 instructions: 1500000000 cycles: 5146815541 cumulative IPC: 0.291442 (Simulation time: 5 hr 35 min 51 sec) 

ChampSim completed all CPUs

Region of Interest Statistics

CPU 0 cumulative IPC: 0.291442 instructions: 1500000000 cycles: 5146815541
cpu0_DTLB TOTAL     ACCESS:  343335265  HIT:  332355509  MISS:   10979756
cpu0_DTLB LOAD      ACCESS:  272253898  HIT:  263512261  MISS:    8741637
cpu0_DTLB RFO       ACCESS:   71081367  HIT:   68843248  MISS:    2238119
cpu0_DTLB PREFETCH  ACCESS:          0  HIT:          0  MISS:          0
cpu0_DTLB WRITEBACK ACCESS:          0  HIT:          0  MISS:          0
cpu0_DTLB TRANSLATION ACCESS:          0  HIT:          0  MISS:          0
cpu0_DTLB PREFETCH  REQUESTED:          0  ISSUED:          0  USEFUL:          0  USELESS:          0
cpu0_DTLB AVERAGE MISS LATENCY: 12.518 cycles
cpu0_ITLB TOTAL     ACCESS:  117719608  HIT:  117719608  MISS:          0
cpu0_ITLB LOAD      ACCESS:  117719608  HIT:  117719608  MISS:          0
cpu0_ITLB RFO       ACCESS:          0  HIT:          0  MISS:          0
cpu0_ITLB PREFETCH  ACCESS:          0  HIT:          0  MISS:          0
cpu0_ITLB WRITEBACK ACCESS:          0  HIT:          0  MISS:          0
cpu0_ITLB TRANSLATION ACCESS:          0  HIT:          0  MISS:          0
cpu0_ITLB PREFETCH  REQUESTED:          0  ISSUED:          0  USEFUL:          0  USELESS:          0
cpu0_ITLB AVERAGE MISS LATENCY: -nan cycles
cpu0_L1I TOTAL     ACCESS:    8455480  HIT:    8446881  MISS:       8599
cpu0_L1I LOAD      ACCESS:    8455480  HIT:    8446881  MISS:       8599
cpu0_L1I RFO       ACCESS:          0  HIT:          0  MISS:          0
cpu0_L1I PREFETCH  ACCESS:          0  HIT:          0  MISS:          0
cpu0_L1I WRITEBACK ACCESS:          0  HIT:          0  MISS:          0
cpu0_L1I TRANSLATION ACCESS:          0  HIT:          0  MISS:          0
cpu0_L1I PREFETCH  REQUESTED:          0  ISSUED:          0  USEFUL:          0  USELESS:          0
cpu0_L1I AVERAGE MISS LATENCY: 340.178 cycles
cpu0_STLB TOTAL     ACCESS:   10979756  HIT:    9459850  MISS:    1519906
cpu0_STLB LOAD      ACCESS:    8741637  HIT:    7340270  MISS:    1401367
cpu0_STLB RFO       ACCESS:    2238119  HIT:    2119580  MISS:     118539
cpu0_STLB PREFETCH  ACCESS:          0  HIT:          0  MISS:          0
cpu0_STLB WRITEBACK ACCESS:          0  HIT:          0  MISS:          0
cpu0_STLB TRANSLATION ACCESS:          0  HIT:          0  MISS:          0
cpu0_STLB PREFETCH  REQUESTED:          0  ISSUED:          0  USEFUL:          0  USELESS:          0
cpu0_STLB AVERAGE MISS LATENCY: 24.295 cycles
cpu0_L1D TOTAL     ACCESS:  292064873  HIT:  215341842  MISS:   76723031
cpu0_L1D LOAD      ACCESS:  211186700  HIT:  145423463  MISS:   65763237
cpu0_L1D RFO       ACCESS:   79399155  HIT:   68499844  MISS:   10899311
cpu0_L1D PREFETCH  ACCESS:          0  HIT:          0  MISS:          0
cpu0_L1D WRITEBACK ACCESS:          0  HIT:          0  MISS:          0
cpu0_L1D TRANSLATION ACCESS:    1479018  HIT:    1418535  MISS:      60483
cpu0_L1D PREFETCH  REQUESTED:          0  ISSUED:          0  USEFUL:          0  USELESS:          0
cpu0_L1D AVERAGE MISS LATENCY: 260.761 cycles
cpu0_L2C TOTAL     ACCESS:  108398126  HIT:   47984034  MISS:   60414092
cpu0_L2C LOAD      ACCESS:   65765933  HIT:   14503471  MISS:   51262462
cpu0_L2C RFO       ACCESS:   10898421  HIT:    1758319  MISS:    9140102
cpu0_L2C PREFETCH  ACCESS:          0  HIT:          0  MISS:          0
cpu0_L2C WRITEBACK ACCESS:   31673289  HIT:   31671696  MISS:       1593
cpu0_L2C TRANSLATION ACCESS:      60483  HIT:      50548  MISS:       9935
cpu0_L2C PREFETCH  REQUESTED:          0  ISSUED:          0  USEFUL:          0  USELESS:          0
cpu0_L2C AVERAGE MISS LATENCY: 317.037 cycles
LLC TOTAL     ACCESS:   83457225  HIT:   36494824  MISS:   46962401
LLC LOAD      ACCESS:   51261671  HIT:   11268399  MISS:   39993272
LLC RFO       ACCESS:    9140069  HIT:    2184054  MISS:    6956015
LLC PREFETCH  ACCESS:          0  HIT:          0  MISS:          0
LLC WRITEBACK ACCESS:   23045550  HIT:   23037752  MISS:       7798
LLC TRANSLATION ACCESS:       9935  HIT:       4619  MISS:       5316
LLC PREFETCH  REQUESTED:          0  ISSUED:          0  USEFUL:          0  USELESS:          0
LLC AVERAGE MISS LATENCY: 380.833 cycles
~~~~~~~~~~Reuse Distance Profiler output~~~~~~~~~~
0	51020976	32093008
1	47566624	36128352
2	38074976	27730048
3	25033712	19356816
4	20135968	15437488
5	14314656	10391520
6	13459136	9823984
7	10445632	7604640
8	8455024	6128144
9	7706592	5393216
10	7264400	4939344
11	6764736	4626848
12	5373824	3707712
13	4162992	2889024
14	3566480	2457696
15	3336192	2346176
16	2979696	2024304
17	2673440	1781248
18	2312784	1517056
19	2075504	1348496
20	1934896	1207888
21	1754288	1124464
22	1518560	972720
23	1400240	904128
24	1285920	816736
25	1181920	729696
26	1113056	665840
27	1061840	622688
28	1032416	599296
29	984432	554864
30	1031872	592832
31	965584	526144
32	939904	485728
33	1202544	591632
34	970016	492736
35	784944	440144
36	698656	414016
37	634704	392032
38	595328	374720
39	561536	351920
40	512160	312496
41	477200	284672
42	478864	290064
43	459584	281056
44	427840	252112
45	431168	249888
46	419856	242064
47	410928	238320
48	370416	219792
49	353152	215744
50	338336	213472
51	315072	200752
52	302480	195472
53	289296	191344
54	280528	186048
55	325776	230736
56	278704	178624
57	297408	194528
58	297696	189840
59	298464	188080
60	290208	185360
61	293360	178592
62	313600	190064
63	342096	194944
64	764368	434896
66	857776	463984
68	734176	394368
70	561872	306496
72	468448	247920
74	428320	202624
76	375712	171840
78	291088	161552
80	243392	141824
82	234000	147760
84	207664	137280
86	191456	129888
88	179040	126032
90	162592	117680
92	150624	108096
94	134688	93504
96	121840	86112
98	114048	82496
100	112912	80640
102	106016	77552
104	99296	74992
106	99552	75312
108	99936	74080
110	97808	73184
112	94560	70048
114	90848	66640
116	86592	62240
118	81888	62464
120	79216	59632
122	79104	59808
124	76544	56880
126	74208	56048
128	145584	109840
132	150464	109504
136	157696	101840
140	150304	93424
144	141984	86272
148	137424	80624
152	126832	87712
156	120912	83632
160	110672	80912
164	121488	85040
168	126560	86480
172	103168	72640
176	105856	73056
180	105616	71392
184	92352	65216
188	85104	61728
192	83904	60848
196	87440	63712
200	84768	63168
204	80560	61808
208	76480	58768
212	72016	54896
216	71760	53680
220	72064	54416
224	67552	50896
228	69440	51904
232	69520	51904
236	67712	49600
240	67760	49328
244	65984	47216
248	64272	45120
252	63424	44400
256	121488	89088
264	116736	89696
272	111344	85744
280	100656	79520
288	97360	78336
296	92576	75616
304	94912	78624
312	85440	72048
320	88256	73872
328	89072	74336
336	85840	71600
344	84240	71984
352	81792	69248
360	76976	65856
368	80720	68304
376	80288	68528
384	76320	65104
392	74272	63632
400	75552	63824
408	71664	60528
416	72704	62288
424	68896	58048
432	70208	59504
440	70240	59120
448	73136	61680
456	69904	57760
464	70704	58336
472	68656	57280
480	66304	56832
488	63312	53520
496	58608	50000
504	63440	54624
512	125824	108528
528	124512	107744
544	116848	100096
560	119072	103968
576	116432	101424
592	119792	104912
608	113984	98864
624	109264	96944
640	111200	96480
656	110016	93664
672	111952	96960
688	103456	91056
704	107712	93808
720	108336	93312
736	107216	93296
752	105328	92992
768	105744	93536
784	104752	92656
800	106560	93728
816	106160	94768
832	109776	98752
848	109120	97376
864	101600	90544
880	107824	97392
896	102848	92272
912	104560	93792
928	106416	96064
944	105872	94768
960	105888	95200
976	109376	98816
992	105968	96176
1008	106176	95776
1024	213040	191968
1056	214976	194896
1088	210896	191600
1120	205760	188000
1152	199968	181776
1184	203792	186352
1216	193424	177760
1248	195408	179808
1280	199168	183936
1312	194448	179568
1344	187504	172624
1376	188272	173584
1408	184672	171024
1440	180864	168352
1472	176480	163840
1504	174528	161520
1536	171456	158496
1568	167536	156192
1600	163504	151072
1632	159232	147056
1664	163216	152784
1696	156480	146208
1728	150416	138560
1760	148400	137632
1792	149024	138320
1824	147488	137472
1856	146096	135248
1888	142928	131792
1920	145056	134960
1952	141056	131664
1984	137328	127280
2016	132384	122528
2048	246928	227168
2112	232960	213184
2176	219680	200816
2240	206896	188144
2304	209104	192256
2368	194544	176304
2432	188256	169584
2496	190944	172256
2560	190448	173568
2624	194704	175824
2688	186224	165936
2752	189632	169216
2816	211264	190096
2880	203952	182976
2944	199072	176880
3008	176000	153424
3072	158528	136160
3136	164496	142624
3200	155104	132096
3264	157584	134112
3328	151264	130864
3392	142432	122688
3456	127440	107248
3520	127136	107488
3584	124512	103664
3648	123568	105216
3712	117824	100640
3776	110944	95616
3840	115872	98544
3904	108480	93264
3968	105696	91856
4032	105120	89840
4096	203568	177856
4224	197664	174784
4352	203840	179808
4480	218832	196784
4608	195152	175056
4736	187632	169584
4864	183232	164432
4992	174976	157824
5120	177152	159744
5248	181600	165408
5376	180784	165776
5504	172528	158608
5632	171584	157376
5760	163152	148304
5888	155712	140640
6016	157712	142880
6144	157040	143280
6272	154288	140400
6400	141408	126880
6528	142880	130128
6656	155952	143152
6784	138576	125728
6912	132832	119344
7040	134912	123312
7168	134304	121312
7296	136176	123664
7424	126880	114960
7552	122864	110992
7680	124832	112832
7808	120880	109120
7936	120080	109216
8064	118240	106992
8192	227456	205632
8448	229120	207232
8704	226272	205456
8960	230400	210176
9216	207408	188576
9472	190976	172112
9728	188288	171088
9984	189120	169504
10240	178336	160512
10496	169856	153376
10752	167424	151072
11008	175552	159760
11264	179008	162976
11520	166208	151184
11776	150128	135120
12032	145216	131312
12288	150272	135328
12544	138608	124912
12800	148656	135280
13056	141648	128096
13312	138624	124912
13568	131232	116640
13824	136032	122464
14080	134832	120016
14336	127104	113072
14592	126720	113952
14848	120848	106704
15104	117440	103680
15360	108992	96048
15616	110192	96976
15872	120144	107872
16128	112512	100064
16384	225008	200512
16896	223712	198112
17408	212608	189728
17920	193392	171136
18432	192832	170768
18944	187872	165472
19456	187648	165904
19968	177264	155904
20480	179376	158704
20992	175088	153808
21504	179360	158192
22016	174544	152224
22528	160176	139728
23040	151600	132144
23552	146528	127920
24064	152000	132768
24576	142736	125200
25088	142096	123760
25600	136560	119408
26112	133584	117200
26624	124976	110480
27136	123648	107744
27648	121936	106048
28160	118592	103104
28672	121360	106000
29184	120816	105488
29696	128976	113152
30208	120864	105568
30720	113728	98656
31232	111632	96096
31744	117456	102512
32256	112544	98320
32768	220656	192032
33792	227616	199424
34816	251504	223456
35840	237888	211632
36864	209408	183712
37888	190768	164640
38912	200080	171920
39936	212192	184816
40960	195904	167968
41984	207328	172816
43008	201696	165296
44032	189632	154480
45056	188800	152448
46080	216240	173536
47104	220352	172352
48128	230256	181904
49152	222720	180752
50176	222512	183280
51200	224000	181792
52224	196064	154880
53248	210336	170752
54272	208960	173136
55296	194384	162112
56320	190560	160960
57344	186128	154224
58368	180240	155360
59392	169872	146416
60416	162368	136352
61440	173344	147760
62464	172352	146480
63488	171872	148768
64512	188928	164992
65536	391888	344160
67584	359008	311712
69632	348560	303360
71680	338368	290592
73728	352688	303632
75776	330560	282032
77824	333744	284048
79872	331280	283920
81920	313760	264512
83968	303296	260160
86016	296688	249552
88064	316176	268592
90112	293360	249776
92160	284032	241552
94208	288704	245840
96256	275280	231424
98304	273344	234064
100352	286896	248176
102400	300896	263008
104448	308320	268752
106496	346912	303456
108544	412896	365520
110592	321184	276832
112640	279072	234096
114688	246208	199424
116736	232592	183856
118784	288752	242480
120832	337456	292896
122880	464320	419728
124928	482928	436960
126976	254160	205104
129024	228736	183760
131072	445984	356224
135168	599760	506224
139264	619392	530480
143360	379936	290592
147456	412400	324560
151552	469648	389904
155648	359264	293824
159744	372464	307504
163840	361280	300224
167936	314064	255360
172032	307936	255024
176128	297968	242128
180224	260608	206816
184320	261824	210064
188416	280416	224992
192512	297872	244944
196608	269504	216608
200704	260432	211872
204800	253552	205216
208896	253584	205968
212992	251056	204448
217088	267568	218640
221184	278672	231280
225280	277616	234032
229376	269648	230432
233472	266000	229328
237568	257616	222720
241664	252016	220256
245760	261056	227728
249856	267552	235856
253952	284112	254352
258048	295568	267408
262144	614480	558160
270336	666304	610528
278528	679744	621856
286720	616528	572608
294912	585072	547024
303104	608784	569600
311296	628256	591776
319488	662384	623584
327680	621392	583472
335872	585584	546064
344064	439680	400320
352256	352096	315520
360448	300304	263280
368640	303392	265424
376832	298096	263216
385024	252096	221504
393216	285600	257120
401408	265568	239408
409600	214064	186576
417792	215552	165680
425984	215648	151808
434176	237472	152336
442368	267680	155408
450560	282704	160992
458752	292496	156208
466944	299488	159344
475136	297936	175856
483328	266912	154208
491520	280432	159776
499712	360928	266768
507904	532080	460976
516096	623136	564080
524288	1100592	978448
540672	1302464	1208432
557056	569648	514464
573440	225216	176848
589824	137120	114240
606208	119632	94112
622592	112288	90608
638976	145392	85776
655360	190016	89488
671744	164224	115776
688128	214752	158688
704512	175968	139616
720896	708736	195072
737280	216304	155184
753664	148064	118240
770048	153408	124064
786432	185616	157472
802816	167712	140832
819200	149680	125552
835584	124672	104064
851968	101568	80368
868352	100432	80080
884736	125856	111696
901120	131232	117840
917504	114400	100176
933888	91264	73952
950272	80400	68816
966656	84480	74688
983040	85344	75200
999424	99856	88592
1015808	127056	112064
1032192	147456	129968
1048576	308640	278560
1081344	346736	310064
1114112	376432	341920
1146880	291584	249440
1179648	299856	255856
1212416	267984	226496
1245184	293104	253520
1277952	286224	242784
1310720	340896	278096
1343488	380688	320688
1376256	930192	854160
1409024	2701872	2540080
1441792	545088	490032
1474560	1618592	1524016
1507328	442704	394960
1540096	945136	876880
1572864	1939744	1794512
1605632	776048	711696
1638400	789312	729008
1671168	1670704	1575424
1703936	337136	299664
1736704	407808	368192
1769472	618784	571648
1802240	1394192	1291568
1835008	590256	531872
1867776	406192	367584
1900544	662592	615392
1933312	531888	489216
1966080	215968	192816
1998848	302992	277888
2031616	112080	91376
2064384	279328	251376
2097152	277232	229104
2162688	735680	667136
2228224	1721392	1612720
2293760	229024	201696
2359296	226144	203168
2424832	880768	819152
2490368	668400	617264
2555904	1297232	1201088
2621440	23264	18032
2686976	16320	11344
2752512	17808	13136
2818048	33792	27280
2883584	15856	11248
2949120	15280	10240
3014656	18240	13664
3080192	45728	35440
3145728	14480	8000
3211264	11168	4784
3276800	19744	11968
3342336	18784	13024
3407872	21328	12864
3473408	17520	13216
3538944	9920	5200
3604480	13600	4352
3670016	12528	6576
3735552	19088	6832
3801088	11600	4608
3866624	14592	9040
3932160	8432	2960
3997696	9936	2224
4063232	12688	2096
4128768	8192	1632
4194304	22752	3712
4325376	22720	4080
4456448	16144	2192
4587520	13984	1200
4718592	20704	1584
4849664	16496	2224
4980736	12384	304
5111808	8768	288
5242880	7872	576
5373952	7024	336
5505024	11728	192
5636096	18160	592
5767168	24032	2736
5898240	43696	4720
6029312	39520	2336
6160384	62592	9776
6291456	138992	22976
6422528	50400	8416
6553600	93056	17712
6684672	25680	12192
6815744	55632	31008
6946816	25648	11648
7077888	81584	53936
7208960	335056	296832
7340032	159008	126512
7471104	144752	108032
7602176	411648	384672
7733248	56144	44160
7864320	151648	124704
7995392	59536	40368
8126464	272832	176144
8257536	75712	71216
8388608	704	160
8650752	3120	2944
8912896	21200	17200
9175040	29408	13536
9437184	251472	222688
9699328	60080	50352
9961472	161840	151168
10223616	656	288
10485760	368	208
10747904	2128	576
11010048	2128	320
11272192	5248	2016
11534336	3760	512
11796480	1200	864
12058624	2528	2176
12320768	2832	1328
12582912	1696	496
12845056	1936	1200
13107200	880	624
13369344	1792	272
13631488	1168	528
13893632	2688	432
14155776	1248	864
14417920	7376	416
14680064	6640	176
14942208	5584	224
15204352	8544	272
15466496	8144	576
15728640	19072	7872
15990784	16352	272
16252928	10832	1936
16515072	15312	4944
16777216	32064	4304
17301504	26336	5296
17825792	34960	8464
18350080	95680	70208
18874368	129648	105632
19398656	120560	66064
19922944	286544	152304
20447232	188128	167504
20971520	144624	106144
21495808	313664	173520
22020096	176112	97504
22544384	96112	79424
23068672	67296	44496
23592960	168832	111312
24117248	114672	64480
24641536	119280	67168
25165824	18048	1904
25690112	134784	89600
26214400	37824	20272
26738688	54256	39296
27262976	62832	45328
27787264	65904	25616
28311552	75104	51232
28835840	58400	41408
29360128	99664	47552
29884416	10976	0
30408704	59968	20720
30932992	28896	21776
31457280	34112	26880
31981568	59520	48912
32505856	8768	16
33030144	57216	20688
33554432	64	0
34603008	144	64
35651584	784	480
36700160	64	64
37748736	288	48
38797312	2960	2800
39845888	288	224
40894464	37328	37248
41943040	416	0
42991616	336	144
44040192	6240	1360
45088768	640	384
46137344	768	176
47185920	3120	0
48234496	464	320
49283072	80	16
50331648	64	32
51380224	144	96
52428800	336	320
53477376	736	224
54525952	368	288
55574528	64	16
56623104	96	32
57671680	368	288
58720256	7632	7536
59768832	64	0
60817408	272	256
61865984	960	896
62914560	0	0
63963136	224	64
65011712	336	64
66060288	176	128
67108864	864	464
69206016	848	576
71303168	960	832
73400320	1008	960
75497472	32	16
77594624	128	112
79691776	160	64
81788928	176	48
83886080	34624	34512
85983232	592	576
88080384	368	192
90177536	208	112
92274688	64	0
94371840	80	48
96468992	64	32
98566144	1088	0
100663296	96	64
102760448	16	0
104857600	3952	64
106954752	768	368
109051904	848	784
111149056	112	16
113246208	48	48
115343360	272	224
117440512	2160	2144
119537664	304	288
121634816	240	224
123731968	128	112
125829120	176	80
127926272	1440	816
130023424	784	528
132120576	192	192
134217728	1264	1248
138412032	688	608
142606336	1184	1184
146800640	176	128
150994944	112	80
155189248	816	32
159383552	416	400
163577856	16	16
167772160	976	912
171966464	12368	11872
176160768	112	96
180355072	64	32
184549376	16	16
188743680	832	736
192937984	25488	24992
197132288	4624	352
201326592	0	0
205520896	48	16
209715200	64	64
213909504	2224	768
218103808	1424	48
222298112	32	16
226492416	144	112
230686720	32	32
234881024	64	48
239075328	160	16
243269632	464	352
247463936	0	0
251658240	48	48
255852544	16	16
260046848	0	0
264241152	16	16
268435456	16	0
276824064	16	16
285212672	128	128
293601280	80	80
301989888	0	0
310378496	16	16
318767104	0	0
327155712	0	0
335544320	0	0
343932928	128	48
352321536	16	16
360710144	0	0
369098752	240	64
377487360	0	0
385875968	16	16
394264576	0	0
402653184	0	0
411041792	48	48
419430400	0	0
427819008	0	0
436207616	0	0
444596224	0	0
452984832	0	0
461373440	0	0
469762048	0	0
478150656	0	0
486539264	0	0
494927872	0	0
503316480	0	0
511705088	0	0
520093696	0	0
528482304	0	0
536870912	0	0
553648128	0	0
570425344	0	0
587202560	0	0
603979776	0	0
620756992	0	0
637534208	0	0
654311424	0	0
671088640	0	0
687865856	0	0
704643072	0	0
721420288	0	0
738197504	0	0
754974720	0	0
771751936	0	0
788529152	0	0
805306368	0	0
822083584	0	0
838860800	0	0
855638016	0	0
872415232	0	0
889192448	0	0
905969664	0	0
922746880	0	0
939524096	0	0
956301312	0	0
973078528	0	0
989855744	0	0
1006632960	0	0
1023410176	0	0
1040187392	0	0
1056964608	0	0
1073741824	0	0
1107296256	0	0
1140850688	0	0
1174405120	0	0
1207959552	0	0
1241513984	0	0
1275068416	0	0
1308622848	0	0
1342177280	0	0
1375731712	0	0
1409286144	0	0
1442840576	0	0
1476395008	0	0
1509949440	0	0
1543503872	0	0
1577058304	0	0
1610612736	0	0
1644167168	0	0
1677721600	0	0
1711276032	0	0
1744830464	0	0
1778384896	0	0
1811939328	0	0
1845493760	0	0
1879048192	0	0
1912602624	0	0
1946157056	0	0
1979711488	0	0
2013265920	0	0
2046820352	0	0
2080374784	0	0
2113929216	0	0
2147483648	0	0
2214592512	0	0
2281701376	0	0
2348810240	0	0
2415919104	0	0
2483027968	0	0
2550136832	0	0
2617245696	0	0
2684354560	0	0
2751463424	0	0
2818572288	0	0
2885681152	0	0
2952790016	0	0
3019898880	0	0
3087007744	0	0
3154116608	0	0
3221225472	0	0
3288334336	0	0
3355443200	0	0
3422552064	0	0
3489660928	0	0
3556769792	0	0
3623878656	0	0
3690987520	0	0
3758096384	0	0
3825205248	0	0
3892314112	0	0
3959422976	0	0
4026531840	0	0
4093640704	0	0
4160749568	0	0
4227858432	0	0
~~~~~~~~~~Reuse Distance Profiler output end~~~~~~~~~~

DRAM Statistics
 CHANNEL 0
 RQ ROW_BUFFER_HIT:    5481289  ROW_BUFFER_MISS:   41442527
 DBUS AVG_CONGESTED_CYCLE:    3.97005
 WQ ROW_BUFFER_HIT:     841653  ROW_BUFFER_MISS:   15609715  FULL:          0


CPU 0 Branch Prediction Accuracy: 92.3501% MPKI: 13.4932 Average ROB Occupancy at Mispredict: 49.2968
Branch type MPKI
BRANCH_DIRECT_JUMP: 2.33333e-05
BRANCH_INDIRECT: 5.06667e-05
BRANCH_CONDITIONAL: 13.4925
BRANCH_DIRECT_CALL: 1.13333e-05
BRANCH_INDIRECT_CALL: 9.6e-05
BRANCH_RETURN: 0.000522

