
*** ChampSim Multicore Out-of-Order Simulator ***

Warmup Instructions: 500000000
Simulation Instructions: 1500000000
Number of CPUs: 1
Off-chip DRAM Size: 4 GiB Channels: 1 Width: 64-bit Data Rate: 3200 MT/s

VirtualMemory physical capacity: 8588881920 num_ppages: 2096895
VirtualMemory page size: 4096 log2_page_size: 12

CPU 0 runs traces/450.soplex-92B.champsimtrace.xz
CPU 0 Bimodal branch predictor
Basic BTB sets: 1024 ways: 8 indirect buffer size: 4096 RAS size: 64
Initializing LRU.
Initializing LRU.
Initializing LRU.
Initializing LRU.
Initializing rdLRU.
Initializing LRU.
Initializing LRU.
Heartbeat CPU 0 instructions: 10000001 cycles: 2895103 heartbeat IPC: 3.45411 cumulative IPC: 3.45411 (Simulation time: 0 hr 0 min 40 sec) 
Heartbeat CPU 0 instructions: 20000000 cycles: 5853203 heartbeat IPC: 3.38055 cumulative IPC: 3.41693 (Simulation time: 0 hr 1 min 19 sec) 
Heartbeat CPU 0 instructions: 30000001 cycles: 8779215 heartbeat IPC: 3.41762 cumulative IPC: 3.41716 (Simulation time: 0 hr 1 min 58 sec) 
Heartbeat CPU 0 instructions: 40000001 cycles: 11697854 heartbeat IPC: 3.42625 cumulative IPC: 3.41943 (Simulation time: 0 hr 2 min 36 sec) 
Heartbeat CPU 0 instructions: 50000003 cycles: 14585753 heartbeat IPC: 3.46273 cumulative IPC: 3.428 (Simulation time: 0 hr 3 min 14 sec) 
Heartbeat CPU 0 instructions: 60000002 cycles: 17503001 heartbeat IPC: 3.42789 cumulative IPC: 3.42798 (Simulation time: 0 hr 3 min 53 sec) 
Heartbeat CPU 0 instructions: 70000002 cycles: 20691357 heartbeat IPC: 3.13641 cumulative IPC: 3.38306 (Simulation time: 0 hr 4 min 41 sec) 
Heartbeat CPU 0 instructions: 80000001 cycles: 24267308 heartbeat IPC: 2.79646 cumulative IPC: 3.29662 (Simulation time: 0 hr 5 min 36 sec) 
Heartbeat CPU 0 instructions: 90000002 cycles: 27206457 heartbeat IPC: 3.40235 cumulative IPC: 3.30804 (Simulation time: 0 hr 6 min 13 sec) 
Heartbeat CPU 0 instructions: 100000001 cycles: 30149778 heartbeat IPC: 3.39752 cumulative IPC: 3.31677 (Simulation time: 0 hr 6 min 51 sec) 
Heartbeat CPU 0 instructions: 110000004 cycles: 33066888 heartbeat IPC: 3.42805 cumulative IPC: 3.32659 (Simulation time: 0 hr 7 min 29 sec) 
Heartbeat CPU 0 instructions: 120000001 cycles: 35977949 heartbeat IPC: 3.43517 cumulative IPC: 3.33538 (Simulation time: 0 hr 8 min 8 sec) 
Heartbeat CPU 0 instructions: 130000000 cycles: 38895151 heartbeat IPC: 3.42794 cumulative IPC: 3.34232 (Simulation time: 0 hr 9 min 3 sec) 
Heartbeat CPU 0 instructions: 140000000 cycles: 41761993 heartbeat IPC: 3.48816 cumulative IPC: 3.35233 (Simulation time: 0 hr 9 min 45 sec) 
Heartbeat CPU 0 instructions: 150000002 cycles: 44628057 heartbeat IPC: 3.48911 cumulative IPC: 3.36111 (Simulation time: 0 hr 10 min 24 sec) 
Heartbeat CPU 0 instructions: 160000001 cycles: 47563756 heartbeat IPC: 3.40634 cumulative IPC: 3.36391 (Simulation time: 0 hr 11 min 18 sec) 
Heartbeat CPU 0 instructions: 170000001 cycles: 50531935 heartbeat IPC: 3.36907 cumulative IPC: 3.36421 (Simulation time: 0 hr 11 min 56 sec) 
Heartbeat CPU 0 instructions: 180000004 cycles: 53715142 heartbeat IPC: 3.14149 cumulative IPC: 3.35101 (Simulation time: 0 hr 12 min 44 sec) 
Heartbeat CPU 0 instructions: 190000000 cycles: 57301700 heartbeat IPC: 2.78819 cumulative IPC: 3.31578 (Simulation time: 0 hr 13 min 35 sec) 
Heartbeat CPU 0 instructions: 200000002 cycles: 60220452 heartbeat IPC: 3.42612 cumulative IPC: 3.32113 (Simulation time: 0 hr 14 min 13 sec) 
Heartbeat CPU 0 instructions: 210000000 cycles: 63086635 heartbeat IPC: 3.48896 cumulative IPC: 3.32876 (Simulation time: 0 hr 14 min 49 sec) 
Heartbeat CPU 0 instructions: 220000003 cycles: 65952844 heartbeat IPC: 3.48893 cumulative IPC: 3.33572 (Simulation time: 0 hr 15 min 26 sec) 
Heartbeat CPU 0 instructions: 230000001 cycles: 68888782 heartbeat IPC: 3.40607 cumulative IPC: 3.33871 (Simulation time: 0 hr 16 min 4 sec) 
Heartbeat CPU 0 instructions: 240000001 cycles: 71812006 heartbeat IPC: 3.42088 cumulative IPC: 3.34206 (Simulation time: 0 hr 16 min 43 sec) 
Heartbeat CPU 0 instructions: 250000002 cycles: 74760037 heartbeat IPC: 3.39209 cumulative IPC: 3.34403 (Simulation time: 0 hr 17 min 20 sec) 
Heartbeat CPU 0 instructions: 260000003 cycles: 77677119 heartbeat IPC: 3.42808 cumulative IPC: 3.34719 (Simulation time: 0 hr 17 min 58 sec) 
Heartbeat CPU 0 instructions: 270000000 cycles: 80596402 heartbeat IPC: 3.4255 cumulative IPC: 3.35003 (Simulation time: 0 hr 18 min 44 sec) 
Heartbeat CPU 0 instructions: 280000000 cycles: 83634525 heartbeat IPC: 3.29151 cumulative IPC: 3.3479 (Simulation time: 0 hr 19 min 42 sec) 
Heartbeat CPU 0 instructions: 290000001 cycles: 87109108 heartbeat IPC: 2.87804 cumulative IPC: 3.32916 (Simulation time: 0 hr 20 min 37 sec) 
Heartbeat CPU 0 instructions: 300000002 cycles: 90214308 heartbeat IPC: 3.2204 cumulative IPC: 3.32541 (Simulation time: 0 hr 21 min 19 sec) 
Heartbeat CPU 0 instructions: 310000000 cycles: 93185577 heartbeat IPC: 3.36556 cumulative IPC: 3.32669 (Simulation time: 0 hr 21 min 57 sec) 
Heartbeat CPU 0 instructions: 320000004 cycles: 96145856 heartbeat IPC: 3.37806 cumulative IPC: 3.32828 (Simulation time: 0 hr 22 min 35 sec) 
Heartbeat CPU 0 instructions: 330000001 cycles: 99129371 heartbeat IPC: 3.35175 cumulative IPC: 3.32898 (Simulation time: 0 hr 23 min 12 sec) 
Heartbeat CPU 0 instructions: 340000003 cycles: 102048426 heartbeat IPC: 3.42577 cumulative IPC: 3.33175 (Simulation time: 0 hr 23 min 48 sec) 
Heartbeat CPU 0 instructions: 350000002 cycles: 105046970 heartbeat IPC: 3.33495 cumulative IPC: 3.33184 (Simulation time: 0 hr 24 min 27 sec) 
Heartbeat CPU 0 instructions: 360000004 cycles: 108027649 heartbeat IPC: 3.35494 cumulative IPC: 3.33248 (Simulation time: 0 hr 25 min 4 sec) 
Heartbeat CPU 0 instructions: 370000001 cycles: 111025382 heartbeat IPC: 3.33585 cumulative IPC: 3.33257 (Simulation time: 0 hr 25 min 43 sec) 
Heartbeat CPU 0 instructions: 380000003 cycles: 114024539 heartbeat IPC: 3.33427 cumulative IPC: 3.33262 (Simulation time: 0 hr 26 min 22 sec) 
Heartbeat CPU 0 instructions: 390000002 cycles: 117189181 heartbeat IPC: 3.15991 cumulative IPC: 3.32795 (Simulation time: 0 hr 27 min 7 sec) 
Heartbeat CPU 0 instructions: 400000001 cycles: 120664778 heartbeat IPC: 2.8772 cumulative IPC: 3.31497 (Simulation time: 0 hr 28 min 16 sec) 
Heartbeat CPU 0 instructions: 410000000 cycles: 123739787 heartbeat IPC: 3.25202 cumulative IPC: 3.3134 (Simulation time: 0 hr 29 min 1 sec) 
Heartbeat CPU 0 instructions: 420000001 cycles: 126835717 heartbeat IPC: 3.23005 cumulative IPC: 3.31137 (Simulation time: 0 hr 29 min 43 sec) 
Heartbeat CPU 0 instructions: 430000001 cycles: 129757428 heartbeat IPC: 3.42265 cumulative IPC: 3.31388 (Simulation time: 0 hr 30 min 20 sec) 
Heartbeat CPU 0 instructions: 440000002 cycles: 132673889 heartbeat IPC: 3.42881 cumulative IPC: 3.3164 (Simulation time: 0 hr 30 min 56 sec) 
Heartbeat CPU 0 instructions: 450000002 cycles: 135592664 heartbeat IPC: 3.42609 cumulative IPC: 3.31876 (Simulation time: 0 hr 31 min 31 sec) 
Heartbeat CPU 0 instructions: 460000003 cycles: 138516972 heartbeat IPC: 3.41961 cumulative IPC: 3.32089 (Simulation time: 0 hr 32 min 7 sec) 
Heartbeat CPU 0 instructions: 470000004 cycles: 141433723 heartbeat IPC: 3.42847 cumulative IPC: 3.32311 (Simulation time: 0 hr 32 min 43 sec) 
Heartbeat CPU 0 instructions: 480000004 cycles: 144341914 heartbeat IPC: 3.43856 cumulative IPC: 3.32544 (Simulation time: 0 hr 33 min 19 sec) 
Heartbeat CPU 0 instructions: 490000000 cycles: 147250074 heartbeat IPC: 3.4386 cumulative IPC: 3.32767 (Simulation time: 0 hr 33 min 56 sec) 
Heartbeat CPU 0 instructions: 500000004 cycles: 150351776 heartbeat IPC: 3.22404 cumulative IPC: 3.32553 (Simulation time: 0 hr 34 min 39 sec) 

Warmup complete CPU 0 instructions: 500000004 cycles: 150351776 (Simulation time: 0 hr 34 min 39 sec) 

Heartbeat CPU 0 instructions: 510000001 cycles: 177291360 heartbeat IPC: 0.371201 cumulative IPC: 0.371201 (Simulation time: 0 hr 36 min 16 sec) 
Heartbeat CPU 0 instructions: 520000001 cycles: 204322522 heartbeat IPC: 0.369943 cumulative IPC: 0.370571 (Simulation time: 0 hr 37 min 54 sec) 
Heartbeat CPU 0 instructions: 530000000 cycles: 232429888 heartbeat IPC: 0.355779 cumulative IPC: 0.365505 (Simulation time: 0 hr 39 min 33 sec) 
Heartbeat CPU 0 instructions: 540000000 cycles: 258363199 heartbeat IPC: 0.385604 cumulative IPC: 0.370331 (Simulation time: 0 hr 41 min 15 sec) 
Heartbeat CPU 0 instructions: 550000001 cycles: 284320155 heartbeat IPC: 0.385253 cumulative IPC: 0.373222 (Simulation time: 0 hr 42 min 40 sec) 
Heartbeat CPU 0 instructions: 560000002 cycles: 310257684 heartbeat IPC: 0.385542 cumulative IPC: 0.375221 (Simulation time: 0 hr 44 min 6 sec) 
Heartbeat CPU 0 instructions: 570000000 cycles: 336188912 heartbeat IPC: 0.385635 cumulative IPC: 0.376674 (Simulation time: 0 hr 45 min 30 sec) 
Heartbeat CPU 0 instructions: 580000000 cycles: 362151556 heartbeat IPC: 0.385169 cumulative IPC: 0.377715 (Simulation time: 0 hr 46 min 55 sec) 
Heartbeat CPU 0 instructions: 590000001 cycles: 389685989 heartbeat IPC: 0.363182 cumulative IPC: 0.376043 (Simulation time: 0 hr 48 min 34 sec) 
Heartbeat CPU 0 instructions: 600000000 cycles: 417730505 heartbeat IPC: 0.356576 cumulative IPC: 0.374001 (Simulation time: 0 hr 50 min 35 sec) 
Heartbeat CPU 0 instructions: 610000000 cycles: 443689570 heartbeat IPC: 0.385222 cumulative IPC: 0.374994 (Simulation time: 0 hr 52 min 1 sec) 
Heartbeat CPU 0 instructions: 620000002 cycles: 486550367 heartbeat IPC: 0.233313 cumulative IPC: 0.356932 (Simulation time: 0 hr 54 min 24 sec) 
Heartbeat CPU 0 instructions: 630000000 cycles: 511943963 heartbeat IPC: 0.3938 cumulative IPC: 0.359521 (Simulation time: 0 hr 56 min 16 sec) 
Heartbeat CPU 0 instructions: 640000001 cycles: 538846464 heartbeat IPC: 0.371713 cumulative IPC: 0.360365 (Simulation time: 0 hr 57 min 44 sec) 
Heartbeat CPU 0 instructions: 650000000 cycles: 565007672 heartbeat IPC: 0.382245 cumulative IPC: 0.361746 (Simulation time: 0 hr 59 min 33 sec) 
Heartbeat CPU 0 instructions: 660000003 cycles: 591150602 heartbeat IPC: 0.382513 cumulative IPC: 0.362977 (Simulation time: 1 hr 1 min 4 sec) 
Heartbeat CPU 0 instructions: 670000001 cycles: 617316210 heartbeat IPC: 0.382181 cumulative IPC: 0.364053 (Simulation time: 1 hr 2 min 38 sec) 
Heartbeat CPU 0 instructions: 680000001 cycles: 643499561 heartbeat IPC: 0.381922 cumulative IPC: 0.365002 (Simulation time: 1 hr 4 min 5 sec) 
Heartbeat CPU 0 instructions: 690000001 cycles: 669724381 heartbeat IPC: 0.381318 cumulative IPC: 0.365826 (Simulation time: 1 hr 5 min 44 sec) 
Heartbeat CPU 0 instructions: 700000003 cycles: 695893038 heartbeat IPC: 0.382137 cumulative IPC: 0.366608 (Simulation time: 1 hr 7 min 59 sec) 
Heartbeat CPU 0 instructions: 710000000 cycles: 722044632 heartbeat IPC: 0.382386 cumulative IPC: 0.36733 (Simulation time: 1 hr 10 min 34 sec) 
Heartbeat CPU 0 instructions: 720000000 cycles: 748154432 heartbeat IPC: 0.382998 cumulative IPC: 0.368014 (Simulation time: 1 hr 12 min 14 sec) 
Heartbeat CPU 0 instructions: 730000000 cycles: 789526989 heartbeat IPC: 0.241706 cumulative IPC: 0.359839 (Simulation time: 1 hr 14 min 46 sec) 
Heartbeat CPU 0 instructions: 740000000 cycles: 815428095 heartbeat IPC: 0.386084 cumulative IPC: 0.360861 (Simulation time: 1 hr 16 min 25 sec) 
Heartbeat CPU 0 instructions: 750000000 cycles: 842021497 heartbeat IPC: 0.376033 cumulative IPC: 0.361444 (Simulation time: 1 hr 17 min 58 sec) 
Heartbeat CPU 0 instructions: 760000001 cycles: 868264564 heartbeat IPC: 0.381053 cumulative IPC: 0.362161 (Simulation time: 1 hr 19 min 39 sec) 
Heartbeat CPU 0 instructions: 770000004 cycles: 894182663 heartbeat IPC: 0.385831 cumulative IPC: 0.362986 (Simulation time: 1 hr 21 min 40 sec) 
Heartbeat CPU 0 instructions: 780000001 cycles: 920132877 heartbeat IPC: 0.385353 cumulative IPC: 0.36374 (Simulation time: 1 hr 23 min 5 sec) 
Heartbeat CPU 0 instructions: 790000004 cycles: 946280444 heartbeat IPC: 0.382445 cumulative IPC: 0.364354 (Simulation time: 1 hr 24 min 32 sec) 
Heartbeat CPU 0 instructions: 800000000 cycles: 972818986 heartbeat IPC: 0.37681 cumulative IPC: 0.364756 (Simulation time: 1 hr 26 min 11 sec) 
Heartbeat CPU 0 instructions: 810000001 cycles: 999337748 heartbeat IPC: 0.377092 cumulative IPC: 0.365141 (Simulation time: 1 hr 27 min 36 sec) 
Heartbeat CPU 0 instructions: 820000002 cycles: 1026133117 heartbeat IPC: 0.373199 cumulative IPC: 0.365388 (Simulation time: 1 hr 29 min 2 sec) 
Heartbeat CPU 0 instructions: 830000003 cycles: 1052599828 heartbeat IPC: 0.377833 cumulative IPC: 0.365753 (Simulation time: 1 hr 31 min 24 sec) 
Heartbeat CPU 0 instructions: 840000001 cycles: 1084707947 heartbeat IPC: 0.311448 cumulative IPC: 0.363887 (Simulation time: 1 hr 32 min 59 sec) 
Heartbeat CPU 0 instructions: 850000001 cycles: 1120309841 heartbeat IPC: 0.280884 cumulative IPC: 0.36084 (Simulation time: 1 hr 35 min 25 sec) 
Heartbeat CPU 0 instructions: 860000002 cycles: 1146050797 heartbeat IPC: 0.388486 cumulative IPC: 0.361555 (Simulation time: 1 hr 37 min 10 sec) 
Heartbeat CPU 0 instructions: 870000000 cycles: 1173797299 heartbeat IPC: 0.360406 cumulative IPC: 0.361524 (Simulation time: 1 hr 38 min 48 sec) 
Heartbeat CPU 0 instructions: 880000004 cycles: 1201775200 heartbeat IPC: 0.357425 cumulative IPC: 0.361415 (Simulation time: 1 hr 40 min 23 sec) 
Heartbeat CPU 0 instructions: 890000003 cycles: 1230356945 heartbeat IPC: 0.349874 cumulative IPC: 0.361109 (Simulation time: 1 hr 42 min 1 sec) 
Heartbeat CPU 0 instructions: 900000004 cycles: 1260257519 heartbeat IPC: 0.334442 cumulative IPC: 0.360391 (Simulation time: 1 hr 43 min 42 sec) 
Heartbeat CPU 0 instructions: 910000004 cycles: 1289130023 heartbeat IPC: 0.34635 cumulative IPC: 0.360035 (Simulation time: 1 hr 45 min 26 sec) 
Heartbeat CPU 0 instructions: 920000001 cycles: 1317351353 heartbeat IPC: 0.354342 cumulative IPC: 0.359897 (Simulation time: 1 hr 47 min 12 sec) 
Heartbeat CPU 0 instructions: 930000001 cycles: 1345533021 heartbeat IPC: 0.354841 cumulative IPC: 0.359778 (Simulation time: 1 hr 49 min 57 sec) 
Heartbeat CPU 0 instructions: 940000000 cycles: 1373063730 heartbeat IPC: 0.363231 cumulative IPC: 0.359856 (Simulation time: 1 hr 51 min 42 sec) 
Heartbeat CPU 0 instructions: 950000002 cycles: 1401310056 heartbeat IPC: 0.354028 cumulative IPC: 0.359724 (Simulation time: 1 hr 53 min 20 sec) 
Heartbeat CPU 0 instructions: 960000001 cycles: 1445441786 heartbeat IPC: 0.226594 cumulative IPC: 0.355188 (Simulation time: 1 hr 56 min 17 sec) 
Heartbeat CPU 0 instructions: 970000004 cycles: 1468374374 heartbeat IPC: 0.436061 cumulative IPC: 0.356595 (Simulation time: 1 hr 58 min 42 sec) 
Heartbeat CPU 0 instructions: 980000000 cycles: 1496883472 heartbeat IPC: 0.350765 cumulative IPC: 0.356471 (Simulation time: 2 hr 0 min 42 sec) 
Heartbeat CPU 0 instructions: 990000000 cycles: 1525272477 heartbeat IPC: 0.352249 cumulative IPC: 0.356384 (Simulation time: 2 hr 2 min 19 sec) 
Heartbeat CPU 0 instructions: 1000000001 cycles: 1553600969 heartbeat IPC: 0.353002 cumulative IPC: 0.356316 (Simulation time: 2 hr 4 min 0 sec) 
Heartbeat CPU 0 instructions: 1010000003 cycles: 1582092155 heartbeat IPC: 0.350986 cumulative IPC: 0.35621 (Simulation time: 2 hr 5 min 39 sec) 
Heartbeat CPU 0 instructions: 1020000000 cycles: 1608786952 heartbeat IPC: 0.374605 cumulative IPC: 0.356547 (Simulation time: 2 hr 7 min 11 sec) 
Heartbeat CPU 0 instructions: 1030000004 cycles: 1636905682 heartbeat IPC: 0.355635 cumulative IPC: 0.356529 (Simulation time: 2 hr 8 min 58 sec) 
Heartbeat CPU 0 instructions: 1040000002 cycles: 1665823342 heartbeat IPC: 0.345809 cumulative IPC: 0.356325 (Simulation time: 2 hr 10 min 42 sec) 
Heartbeat CPU 0 instructions: 1050000000 cycles: 1694602728 heartbeat IPC: 0.347471 cumulative IPC: 0.35616 (Simulation time: 2 hr 12 min 27 sec) 
Heartbeat CPU 0 instructions: 1060000000 cycles: 1722237502 heartbeat IPC: 0.361863 cumulative IPC: 0.35626 (Simulation time: 2 hr 14 min 0 sec) 
Heartbeat CPU 0 instructions: 1070000004 cycles: 1749812137 heartbeat IPC: 0.362652 cumulative IPC: 0.35637 (Simulation time: 2 hr 15 min 32 sec) 
Heartbeat CPU 0 instructions: 1080000000 cycles: 1792528731 heartbeat IPC: 0.234101 cumulative IPC: 0.35319 (Simulation time: 2 hr 18 min 5 sec) 
Heartbeat CPU 0 instructions: 1090000001 cycles: 1815829513 heartbeat IPC: 0.42917 cumulative IPC: 0.354253 (Simulation time: 2 hr 19 min 44 sec) 
Heartbeat CPU 0 instructions: 1100000002 cycles: 1843659365 heartbeat IPC: 0.359326 cumulative IPC: 0.354336 (Simulation time: 2 hr 21 min 15 sec) 
Heartbeat CPU 0 instructions: 1110000000 cycles: 1871253040 heartbeat IPC: 0.362402 cumulative IPC: 0.354465 (Simulation time: 2 hr 22 min 44 sec) 
Heartbeat CPU 0 instructions: 1120000000 cycles: 1898608902 heartbeat IPC: 0.365552 cumulative IPC: 0.354639 (Simulation time: 2 hr 24 min 13 sec) 
Heartbeat CPU 0 instructions: 1130000001 cycles: 1925910831 heartbeat IPC: 0.366275 cumulative IPC: 0.354818 (Simulation time: 2 hr 25 min 42 sec) 
Heartbeat CPU 0 instructions: 1140000000 cycles: 1953497199 heartbeat IPC: 0.362498 cumulative IPC: 0.354935 (Simulation time: 2 hr 27 min 11 sec) 
Heartbeat CPU 0 instructions: 1150000004 cycles: 1980933070 heartbeat IPC: 0.364486 cumulative IPC: 0.355078 (Simulation time: 2 hr 28 min 37 sec) 
Heartbeat CPU 0 instructions: 1160000001 cycles: 2008511365 heartbeat IPC: 0.362604 cumulative IPC: 0.35519 (Simulation time: 2 hr 30 min 5 sec) 
Heartbeat CPU 0 instructions: 1170000002 cycles: 2036235447 heartbeat IPC: 0.360697 cumulative IPC: 0.355271 (Simulation time: 2 hr 31 min 34 sec) 
Heartbeat CPU 0 instructions: 1180000001 cycles: 2063806553 heartbeat IPC: 0.362698 cumulative IPC: 0.355378 (Simulation time: 2 hr 33 min 3 sec) 
Heartbeat CPU 0 instructions: 1190000004 cycles: 2091517751 heartbeat IPC: 0.360865 cumulative IPC: 0.355456 (Simulation time: 2 hr 34 min 33 sec) 
Heartbeat CPU 0 instructions: 1200000000 cycles: 2134667211 heartbeat IPC: 0.231753 cumulative IPC: 0.352766 (Simulation time: 2 hr 36 min 57 sec) 
Heartbeat CPU 0 instructions: 1210000001 cycles: 2158044087 heartbeat IPC: 0.427773 cumulative IPC: 0.35364 (Simulation time: 2 hr 38 min 41 sec) 
Heartbeat CPU 0 instructions: 1220000003 cycles: 2185202717 heartbeat IPC: 0.368207 cumulative IPC: 0.353834 (Simulation time: 2 hr 40 min 13 sec) 
Heartbeat CPU 0 instructions: 1230000002 cycles: 2212102225 heartbeat IPC: 0.371754 cumulative IPC: 0.354068 (Simulation time: 2 hr 41 min 49 sec) 
Heartbeat CPU 0 instructions: 1240000001 cycles: 2239595180 heartbeat IPC: 0.36373 cumulative IPC: 0.354195 (Simulation time: 2 hr 43 min 22 sec) 
Heartbeat CPU 0 instructions: 1250000000 cycles: 2266824554 heartbeat IPC: 0.36725 cumulative IPC: 0.354363 (Simulation time: 2 hr 45 min 4 sec) 
Heartbeat CPU 0 instructions: 1260000000 cycles: 2293453487 heartbeat IPC: 0.375531 cumulative IPC: 0.354626 (Simulation time: 2 hr 46 min 29 sec) 
Heartbeat CPU 0 instructions: 1270000000 cycles: 2319546447 heartbeat IPC: 0.383245 cumulative IPC: 0.35497 (Simulation time: 2 hr 47 min 54 sec) 
Heartbeat CPU 0 instructions: 1280000000 cycles: 2344976689 heartbeat IPC: 0.393233 cumulative IPC: 0.355414 (Simulation time: 2 hr 49 min 20 sec) 
Heartbeat CPU 0 instructions: 1290000002 cycles: 2370438957 heartbeat IPC: 0.392738 cumulative IPC: 0.355842 (Simulation time: 2 hr 50 min 47 sec) 
Heartbeat CPU 0 instructions: 1300000002 cycles: 2395874420 heartbeat IPC: 0.393152 cumulative IPC: 0.356265 (Simulation time: 2 hr 52 min 13 sec) 
Heartbeat CPU 0 instructions: 1310000002 cycles: 2421850186 heartbeat IPC: 0.384974 cumulative IPC: 0.356593 (Simulation time: 2 hr 53 min 45 sec) 
Heartbeat CPU 0 instructions: 1320000002 cycles: 2464653379 heartbeat IPC: 0.233627 cumulative IPC: 0.354319 (Simulation time: 2 hr 56 min 1 sec) 
Heartbeat CPU 0 instructions: 1330000003 cycles: 2490130056 heartbeat IPC: 0.392516 cumulative IPC: 0.354734 (Simulation time: 2 hr 57 min 51 sec) 
Heartbeat CPU 0 instructions: 1340000004 cycles: 2515940215 heartbeat IPC: 0.387444 cumulative IPC: 0.355091 (Simulation time: 2 hr 59 min 18 sec) 
Heartbeat CPU 0 instructions: 1350000000 cycles: 2541633637 heartbeat IPC: 0.389205 cumulative IPC: 0.355458 (Simulation time: 3 hr 0 min 44 sec) 
Heartbeat CPU 0 instructions: 1360000002 cycles: 2567334155 heartbeat IPC: 0.389097 cumulative IPC: 0.355816 (Simulation time: 3 hr 2 min 10 sec) 
Heartbeat CPU 0 instructions: 1370000001 cycles: 2593825190 heartbeat IPC: 0.377486 cumulative IPC: 0.356051 (Simulation time: 3 hr 3 min 39 sec) 
Heartbeat CPU 0 instructions: 1380000000 cycles: 2622608144 heartbeat IPC: 0.347428 cumulative IPC: 0.35595 (Simulation time: 3 hr 5 min 21 sec) 
Heartbeat CPU 0 instructions: 1390000004 cycles: 2653702963 heartbeat IPC: 0.321597 cumulative IPC: 0.355523 (Simulation time: 3 hr 7 min 5 sec) 
Heartbeat CPU 0 instructions: 1400000000 cycles: 2683415675 heartbeat IPC: 0.336556 cumulative IPC: 0.355301 (Simulation time: 3 hr 8 min 50 sec) 
Heartbeat CPU 0 instructions: 1410000002 cycles: 2712985637 heartbeat IPC: 0.338181 cumulative IPC: 0.355103 (Simulation time: 3 hr 10 min 33 sec) 
Heartbeat CPU 0 instructions: 1420000002 cycles: 2740154745 heartbeat IPC: 0.368065 cumulative IPC: 0.355239 (Simulation time: 3 hr 12 min 2 sec) 
Heartbeat CPU 0 instructions: 1430000000 cycles: 2781020223 heartbeat IPC: 0.244705 cumulative IPC: 0.353522 (Simulation time: 3 hr 14 min 16 sec) 
Heartbeat CPU 0 instructions: 1440000000 cycles: 2804035140 heartbeat IPC: 0.434501 cumulative IPC: 0.354225 (Simulation time: 3 hr 15 min 56 sec) 
Heartbeat CPU 0 instructions: 1450000000 cycles: 2833101361 heartbeat IPC: 0.344042 cumulative IPC: 0.354114 (Simulation time: 3 hr 17 min 27 sec) 
Heartbeat CPU 0 instructions: 1460000001 cycles: 2860590307 heartbeat IPC: 0.363783 cumulative IPC: 0.354212 (Simulation time: 3 hr 19 min 0 sec) 
Heartbeat CPU 0 instructions: 1470000000 cycles: 2888780113 heartbeat IPC: 0.354738 cumulative IPC: 0.354218 (Simulation time: 3 hr 20 min 31 sec) 
Heartbeat CPU 0 instructions: 1480000004 cycles: 2918252615 heartbeat IPC: 0.339299 cumulative IPC: 0.354059 (Simulation time: 3 hr 22 min 15 sec) 
Heartbeat CPU 0 instructions: 1490000001 cycles: 2941653589 heartbeat IPC: 0.427333 cumulative IPC: 0.354673 (Simulation time: 3 hr 23 min 43 sec) 
Heartbeat CPU 0 instructions: 1500000000 cycles: 2965841078 heartbeat IPC: 0.413437 cumulative IPC: 0.355178 (Simulation time: 3 hr 25 min 18 sec) 
Heartbeat CPU 0 instructions: 1510000001 cycles: 2992031380 heartbeat IPC: 0.381821 cumulative IPC: 0.355424 (Simulation time: 3 hr 26 min 57 sec) 
Heartbeat CPU 0 instructions: 1520000003 cycles: 3015307813 heartbeat IPC: 0.429619 cumulative IPC: 0.356026 (Simulation time: 3 hr 28 min 25 sec) 
Heartbeat CPU 0 instructions: 1530000002 cycles: 3058283533 heartbeat IPC: 0.232689 cumulative IPC: 0.354204 (Simulation time: 3 hr 30 min 48 sec) 
Heartbeat CPU 0 instructions: 1540000000 cycles: 3080947544 heartbeat IPC: 0.441228 cumulative IPC: 0.354877 (Simulation time: 3 hr 32 min 22 sec) 
Heartbeat CPU 0 instructions: 1550000004 cycles: 3104630091 heartbeat IPC: 0.422252 cumulative IPC: 0.355417 (Simulation time: 3 hr 33 min 50 sec) 
Heartbeat CPU 0 instructions: 1560000000 cycles: 3128613909 heartbeat IPC: 0.416948 cumulative IPC: 0.355912 (Simulation time: 3 hr 35 min 15 sec) 
Heartbeat CPU 0 instructions: 1570000000 cycles: 3152651552 heartbeat IPC: 0.416014 cumulative IPC: 0.356393 (Simulation time: 3 hr 36 min 53 sec) 
Heartbeat CPU 0 instructions: 1580000003 cycles: 3175774886 heartbeat IPC: 0.432464 cumulative IPC: 0.356975 (Simulation time: 3 hr 38 min 16 sec) 
Heartbeat CPU 0 instructions: 1590000000 cycles: 3200758592 heartbeat IPC: 0.400261 cumulative IPC: 0.357329 (Simulation time: 3 hr 39 min 47 sec) 
Heartbeat CPU 0 instructions: 1600000004 cycles: 3225688529 heartbeat IPC: 0.401124 cumulative IPC: 0.357684 (Simulation time: 3 hr 41 min 17 sec) 
Heartbeat CPU 0 instructions: 1610000000 cycles: 3249764199 heartbeat IPC: 0.415357 cumulative IPC: 0.358132 (Simulation time: 3 hr 42 min 49 sec) 
Heartbeat CPU 0 instructions: 1620000003 cycles: 3292350283 heartbeat IPC: 0.234819 cumulative IPC: 0.356461 (Simulation time: 3 hr 45 min 6 sec) 
Heartbeat CPU 0 instructions: 1630000001 cycles: 3315721082 heartbeat IPC: 0.427884 cumulative IPC: 0.356988 (Simulation time: 3 hr 46 min 48 sec) 
Heartbeat CPU 0 instructions: 1640000004 cycles: 3339235672 heartbeat IPC: 0.425268 cumulative IPC: 0.357492 (Simulation time: 3 hr 48 min 19 sec) 
Heartbeat CPU 0 instructions: 1650000001 cycles: 3365327287 heartbeat IPC: 0.383265 cumulative IPC: 0.357701 (Simulation time: 3 hr 49 min 56 sec) 
Heartbeat CPU 0 instructions: 1660000003 cycles: 3388331418 heartbeat IPC: 0.434705 cumulative IPC: 0.358248 (Simulation time: 3 hr 51 min 19 sec) 
Heartbeat CPU 0 instructions: 1670000004 cycles: 3413313188 heartbeat IPC: 0.400292 cumulative IPC: 0.35857 (Simulation time: 3 hr 52 min 50 sec) 
Heartbeat CPU 0 instructions: 1680000002 cycles: 3438369871 heartbeat IPC: 0.399095 cumulative IPC: 0.358879 (Simulation time: 3 hr 54 min 20 sec) 
Heartbeat CPU 0 instructions: 1690000000 cycles: 3462154324 heartbeat IPC: 0.420443 cumulative IPC: 0.359321 (Simulation time: 3 hr 55 min 46 sec) 
Heartbeat CPU 0 instructions: 1700000003 cycles: 3494592038 heartbeat IPC: 0.308283 cumulative IPC: 0.358826 (Simulation time: 3 hr 57 min 40 sec) 
Heartbeat CPU 0 instructions: 1710000000 cycles: 3525404769 heartbeat IPC: 0.324541 cumulative IPC: 0.358513 (Simulation time: 3 hr 59 min 25 sec) 
Heartbeat CPU 0 instructions: 1720000000 cycles: 3550263726 heartbeat IPC: 0.402269 cumulative IPC: 0.358833 (Simulation time: 4 hr 1 min 5 sec) 
Heartbeat CPU 0 instructions: 1730000000 cycles: 3576847272 heartbeat IPC: 0.376173 cumulative IPC: 0.358967 (Simulation time: 4 hr 2 min 40 sec) 
Heartbeat CPU 0 instructions: 1740000002 cycles: 3599311415 heartbeat IPC: 0.445154 cumulative IPC: 0.359529 (Simulation time: 4 hr 4 min 5 sec) 
Heartbeat CPU 0 instructions: 1750000004 cycles: 3624360606 heartbeat IPC: 0.399215 cumulative IPC: 0.359815 (Simulation time: 4 hr 5 min 36 sec) 
Heartbeat CPU 0 instructions: 1760000003 cycles: 3647368681 heartbeat IPC: 0.43463 cumulative IPC: 0.360307 (Simulation time: 4 hr 6 min 57 sec) 
Heartbeat CPU 0 instructions: 1770000003 cycles: 3672786732 heartbeat IPC: 0.393421 cumulative IPC: 0.360546 (Simulation time: 4 hr 8 min 34 sec) 
Heartbeat CPU 0 instructions: 1780000002 cycles: 3699338277 heartbeat IPC: 0.376626 cumulative IPC: 0.360666 (Simulation time: 4 hr 10 min 12 sec) 
Heartbeat CPU 0 instructions: 1790000003 cycles: 3738321780 heartbeat IPC: 0.256519 cumulative IPC: 0.359535 (Simulation time: 4 hr 12 min 27 sec) 
Heartbeat CPU 0 instructions: 1800000002 cycles: 3763161372 heartbeat IPC: 0.402583 cumulative IPC: 0.359831 (Simulation time: 4 hr 14 min 0 sec) 
Heartbeat CPU 0 instructions: 1810000000 cycles: 3788664818 heartbeat IPC: 0.392104 cumulative IPC: 0.360057 (Simulation time: 4 hr 15 min 36 sec) 
Heartbeat CPU 0 instructions: 1820000004 cycles: 3811354143 heartbeat IPC: 0.440736 cumulative IPC: 0.360557 (Simulation time: 4 hr 17 min 3 sec) 
Heartbeat CPU 0 instructions: 1830000003 cycles: 3836235743 heartbeat IPC: 0.401903 cumulative IPC: 0.360836 (Simulation time: 4 hr 18 min 33 sec) 
Heartbeat CPU 0 instructions: 1840000000 cycles: 3859436966 heartbeat IPC: 0.431012 cumulative IPC: 0.361275 (Simulation time: 4 hr 19 min 57 sec) 
Heartbeat CPU 0 instructions: 1850000002 cycles: 3884239649 heartbeat IPC: 0.403182 cumulative IPC: 0.361553 (Simulation time: 4 hr 21 min 28 sec) 
Heartbeat CPU 0 instructions: 1860000001 cycles: 3910540749 heartbeat IPC: 0.380212 cumulative IPC: 0.361684 (Simulation time: 4 hr 23 min 6 sec) 
Heartbeat CPU 0 instructions: 1870000001 cycles: 3934657955 heartbeat IPC: 0.414642 cumulative IPC: 0.362021 (Simulation time: 4 hr 24 min 39 sec) 
Heartbeat CPU 0 instructions: 1880000002 cycles: 3975761760 heartbeat IPC: 0.243287 cumulative IPC: 0.360746 (Simulation time: 4 hr 26 min 43 sec) 
Heartbeat CPU 0 instructions: 1890000004 cycles: 3999253859 heartbeat IPC: 0.425675 cumulative IPC: 0.361142 (Simulation time: 4 hr 28 min 25 sec) 
Heartbeat CPU 0 instructions: 1900000000 cycles: 4021930950 heartbeat IPC: 0.440973 cumulative IPC: 0.36161 (Simulation time: 4 hr 29 min 50 sec) 
Heartbeat CPU 0 instructions: 1910000000 cycles: 4046672007 heartbeat IPC: 0.404186 cumulative IPC: 0.36188 (Simulation time: 4 hr 31 min 19 sec) 
Heartbeat CPU 0 instructions: 1920000002 cycles: 4069882093 heartbeat IPC: 0.430847 cumulative IPC: 0.362288 (Simulation time: 4 hr 32 min 43 sec) 
Heartbeat CPU 0 instructions: 1930000001 cycles: 4094696629 heartbeat IPC: 0.40299 cumulative IPC: 0.362544 (Simulation time: 4 hr 34 min 14 sec) 
Heartbeat CPU 0 instructions: 1940000003 cycles: 4120009766 heartbeat IPC: 0.395052 cumulative IPC: 0.362752 (Simulation time: 4 hr 35 min 45 sec) 
Heartbeat CPU 0 instructions: 1950000000 cycles: 4143417286 heartbeat IPC: 0.427213 cumulative IPC: 0.36313 (Simulation time: 4 hr 37 min 11 sec) 
Heartbeat CPU 0 instructions: 1960000002 cycles: 4174751335 heartbeat IPC: 0.319142 cumulative IPC: 0.362787 (Simulation time: 4 hr 38 min 54 sec) 
Heartbeat CPU 0 instructions: 1970000004 cycles: 4206200391 heartbeat IPC: 0.317975 cumulative IPC: 0.36244 (Simulation time: 4 hr 40 min 44 sec) 
Heartbeat CPU 0 instructions: 1980000001 cycles: 4230650835 heartbeat IPC: 0.40899 cumulative IPC: 0.362719 (Simulation time: 4 hr 42 min 25 sec) 
Heartbeat CPU 0 instructions: 1990000000 cycles: 4255511465 heartbeat IPC: 0.402242 cumulative IPC: 0.362958 (Simulation time: 4 hr 43 min 56 sec) 
*** Reached end of trace: traces/450.soplex-92B.champsimtrace.xz
Heartbeat CPU 0 instructions: 2000000000 cycles: 4279076112 heartbeat IPC: 0.424365 cumulative IPC: 0.363308 (Simulation time: 4 hr 45 min 21 sec) 
Finished CPU 0 instructions: 1500000001 cycles: 4128724410 cumulative IPC: 0.363308 (Simulation time: 4 hr 45 min 21 sec) 

ChampSim completed all CPUs

Region of Interest Statistics

CPU 0 cumulative IPC: 0.363308 instructions: 1500000001 cycles: 4128724410
cpu0_DTLB TOTAL     ACCESS:  321441701  HIT:  313635823  MISS:    7805878
cpu0_DTLB LOAD      ACCESS:  245896449  HIT:  239655400  MISS:    6241049
cpu0_DTLB RFO       ACCESS:   75545252  HIT:   73980423  MISS:    1564829
cpu0_DTLB PREFETCH  ACCESS:          0  HIT:          0  MISS:          0
cpu0_DTLB WRITEBACK ACCESS:          0  HIT:          0  MISS:          0
cpu0_DTLB TRANSLATION ACCESS:          0  HIT:          0  MISS:          0
cpu0_DTLB PREFETCH  REQUESTED:          0  ISSUED:          0  USEFUL:          0  USELESS:          0
cpu0_DTLB AVERAGE MISS LATENCY: 13.5897 cycles
cpu0_ITLB TOTAL     ACCESS:  122367656  HIT:  122367653  MISS:          3
cpu0_ITLB LOAD      ACCESS:  122367656  HIT:  122367653  MISS:          3
cpu0_ITLB RFO       ACCESS:          0  HIT:          0  MISS:          0
cpu0_ITLB PREFETCH  ACCESS:          0  HIT:          0  MISS:          0
cpu0_ITLB WRITEBACK ACCESS:          0  HIT:          0  MISS:          0
cpu0_ITLB TRANSLATION ACCESS:          0  HIT:          0  MISS:          0
cpu0_ITLB PREFETCH  REQUESTED:          0  ISSUED:          0  USEFUL:          0  USELESS:          0
cpu0_ITLB AVERAGE MISS LATENCY: 286 cycles
cpu0_L1I TOTAL     ACCESS:   17645370  HIT:   17636264  MISS:       9106
cpu0_L1I LOAD      ACCESS:   17645370  HIT:   17636264  MISS:       9106
cpu0_L1I RFO       ACCESS:          0  HIT:          0  MISS:          0
cpu0_L1I PREFETCH  ACCESS:          0  HIT:          0  MISS:          0
cpu0_L1I WRITEBACK ACCESS:          0  HIT:          0  MISS:          0
cpu0_L1I TRANSLATION ACCESS:          0  HIT:          0  MISS:          0
cpu0_L1I PREFETCH  REQUESTED:          0  ISSUED:          0  USEFUL:          0  USELESS:          0
cpu0_L1I AVERAGE MISS LATENCY: 324.676 cycles
cpu0_STLB TOTAL     ACCESS:    7805881  HIT:    6525361  MISS:    1280520
cpu0_STLB LOAD      ACCESS:    6241052  HIT:    5080676  MISS:    1160376
cpu0_STLB RFO       ACCESS:    1564829  HIT:    1444685  MISS:     120144
cpu0_STLB PREFETCH  ACCESS:          0  HIT:          0  MISS:          0
cpu0_STLB WRITEBACK ACCESS:          0  HIT:          0  MISS:          0
cpu0_STLB TRANSLATION ACCESS:          0  HIT:          0  MISS:          0
cpu0_STLB PREFETCH  REQUESTED:          0  ISSUED:          0  USEFUL:          0  USELESS:          0
cpu0_STLB AVERAGE MISS LATENCY: 27.2952 cycles
cpu0_L1D TOTAL     ACCESS:  277264100  HIT:  222603277  MISS:   54660823
cpu0_L1D LOAD      ACCESS:  192573116  HIT:  147358824  MISS:   45214292
cpu0_L1D RFO       ACCESS:   83446736  HIT:   74038127  MISS:    9408609
cpu0_L1D PREFETCH  ACCESS:          0  HIT:          0  MISS:          0
cpu0_L1D WRITEBACK ACCESS:          0  HIT:          0  MISS:          0
cpu0_L1D TRANSLATION ACCESS:    1244248  HIT:    1206326  MISS:      37922
cpu0_L1D PREFETCH  REQUESTED:          0  ISSUED:          0  USEFUL:          0  USELESS:          0
cpu0_L1D AVERAGE MISS LATENCY: 259.761 cycles
cpu0_L2C TOTAL     ACCESS:   76485283  HIT:   33225480  MISS:   43259803
cpu0_L2C LOAD      ACCESS:   45220783  HIT:   10073004  MISS:   35147779
cpu0_L2C RFO       ACCESS:    9407768  HIT:    1310595  MISS:    8097173
cpu0_L2C PREFETCH  ACCESS:          0  HIT:          0  MISS:          0
cpu0_L2C WRITEBACK ACCESS:   21818810  HIT:   21812030  MISS:       6780
cpu0_L2C TRANSLATION ACCESS:      37922  HIT:      29851  MISS:       8071
cpu0_L2C PREFETCH  REQUESTED:          0  ISSUED:          0  USEFUL:          0  USELESS:          0
cpu0_L2C AVERAGE MISS LATENCY: 314.212 cycles
LLC TOTAL     ACCESS:   59519747  HIT:   26034365  MISS:   33485382
LLC LOAD      ACCESS:   35147608  HIT:    7897459  MISS:   27250149
LLC RFO       ACCESS:    8097132  HIT:    1873214  MISS:    6223918
LLC PREFETCH  ACCESS:          0  HIT:          0  MISS:          0
LLC WRITEBACK ACCESS:   16266936  HIT:   16259281  MISS:       7655
LLC TRANSLATION ACCESS:       8071  HIT:       4411  MISS:       3660
LLC PREFETCH  REQUESTED:          0  ISSUED:          0  USEFUL:          0  USELESS:          0
LLC AVERAGE MISS LATENCY: 378.804 cycles
~~~~~~~~~~Reuse Distance Profiler output~~~~~~~~~~
0	49886384	27741664
1	44926224	35913216
2	30548624	21650352
3	22892640	16623808
4	19431504	12347696
5	13850320	8664896
6	10778480	6409600
7	8988128	5778432
8	7798416	5180368
9	6614736	4204096
10	5939808	3648768
11	5280928	3355824
12	4657280	3064384
13	3821440	2638608
14	3604896	2426496
15	3547232	2287664
16	3016048	1982912
17	2730000	1765760
18	2667392	1593920
19	2410064	1522880
20	2258928	1445408
21	2105536	1389936
22	1930864	1293808
23	1733776	1133568
24	1586672	1007328
25	1519296	883056
26	1484528	802576
27	1336544	758160
28	1316608	761088
29	1309184	734048
30	1370416	777232
31	1699200	956672
32	1488192	880960
33	1350016	839616
34	1293824	860752
35	1280912	918320
36	1299440	987856
37	1388880	1106304
38	1521664	1242032
39	1584304	1316400
40	1592672	1337376
41	1490656	1249296
42	1424464	1202432
43	1312368	1102128
44	1265968	1078224
45	1105904	934992
46	959872	813408
47	867936	729232
48	793328	663504
49	818448	695376
50	906928	786112
51	848384	720368
52	762624	641024
53	670656	552304
54	594528	475472
55	603584	477552
56	553696	422848
57	543824	406176
58	533408	396016
59	535328	391456
60	529584	381056
61	520032	368256
62	521696	362768
63	541536	368000
64	1083648	702496
66	1049200	654768
68	935296	568000
70	795488	467872
72	765152	416544
74	822784	382864
76	755920	340768
78	574480	301264
80	442432	270816
82	389760	251456
84	335120	222320
86	276336	194944
88	220240	163696
90	199792	155808
92	187760	147744
94	180112	144256
96	186256	153808
98	172480	145392
100	164640	136032
102	156560	128960
104	146928	119184
106	137920	110400
108	136464	110352
110	130544	106464
112	121136	100560
114	121920	101632
116	119968	101216
118	113952	96752
120	111616	94112
122	108560	89520
124	98432	81184
126	97744	80768
128	193264	158144
132	184336	149664
136	171232	137920
140	159024	120512
144	163104	130544
148	180880	141872
152	163312	134768
156	150192	127248
160	143280	116400
164	131312	108688
168	128704	102960
172	128944	100336
176	136576	113520
180	120368	93184
184	119744	88944
188	136416	103904
192	117872	95792
196	118720	99312
200	121376	95088
204	108064	85776
208	90336	74768
212	85872	71440
216	81248	66928
220	84480	69088
224	84816	69424
228	79856	65744
232	80480	65520
236	77536	62560
240	80096	65040
244	80144	64128
248	78544	62912
252	77488	61120
256	149888	120208
264	135504	110192
272	126928	105872
280	121632	101680
288	110400	91536
296	109792	95136
304	113008	98416
312	108256	95648
320	101488	88320
328	92176	81664
336	91216	80528
344	91984	81664
352	96384	86464
360	89840	80080
368	83264	74368
376	82272	72768
384	79600	70720
392	79872	71504
400	82768	74272
408	82544	72896
416	78480	69280
424	72576	63360
432	69968	61520
440	74720	66128
448	72560	64000
456	74976	66096
464	69216	61248
472	66912	59424
480	65888	58080
488	61888	54192
496	63536	56384
504	64032	57760
512	124352	110448
528	114944	102096
544	114784	101984
560	117168	104912
576	105280	94416
592	112688	100752
608	114288	101424
624	105104	92528
640	104288	92976
656	101840	90384
672	101744	89936
688	105088	92976
704	101392	89776
720	96688	86640
736	96496	87264
752	96176	86400
768	94256	84112
784	89072	79760
800	84960	76880
816	88560	79696
832	86192	77456
848	81056	73360
864	82416	73872
880	80848	73616
896	81952	74080
912	83152	75552
928	78832	71072
944	79376	71264
960	76064	68752
976	75760	67712
992	72192	65184
1008	74560	67152
1024	151280	136688
1056	148960	135024
1088	142480	128160
1120	139792	125024
1152	130800	117824
1184	129056	116688
1216	126928	114960
1248	121952	111072
1280	121680	111536
1312	124016	113680
1344	118048	107712
1376	117600	107856
1408	114384	104224
1440	113168	103264
1472	108368	99584
1504	111600	102480
1536	105856	97296
1568	104064	95296
1600	103200	95296
1632	101440	92576
1664	96640	88000
1696	92384	83904
1728	93792	84656
1760	92784	84464
1792	90064	81328
1824	88368	80224
1856	84704	76896
1888	82464	74928
1920	82528	75328
1952	79872	72864
1984	82352	74944
2016	75152	67280
2048	157504	142128
2112	148032	131712
2176	143616	128528
2240	151248	135344
2304	140784	125408
2368	139664	122896
2432	137920	118800
2496	132400	112608
2560	138832	119744
2624	139408	118672
2688	125280	108624
2752	115264	98080
2816	118048	102464
2880	112256	96016
2944	111056	95472
3008	105328	91104
3072	103872	87376
3136	106672	90544
3200	102592	87216
3264	104992	91088
3328	96288	82352
3392	90816	78272
3456	89456	77184
3520	90448	78576
3584	92320	81088
3648	88448	76784
3712	90224	80592
3776	96144	85600
3840	96016	85584
3904	87504	78512
3968	86064	78336
4032	82032	74400
4096	163216	148448
4224	153456	138544
4352	149136	135648
4480	136624	123856
4608	131760	119296
4736	122752	111632
4864	125792	113280
4992	120144	109840
5120	121536	111312
5248	123680	113376
5376	125136	113648
5504	121664	111808
5632	113744	103520
5760	120912	110752
5888	112480	102784
6016	108560	98656
6144	102064	92448
6272	120000	110256
6400	102656	93680
6528	103136	94368
6656	99088	90688
6784	99088	90800
6912	103696	95776
7040	105184	96784
7168	92752	84896
7296	89024	82400
7424	86784	79184
7552	83840	75696
7680	95872	88224
7808	81824	74624
7936	75296	68480
8064	86992	78944
8192	163376	147824
8448	150320	134352
8704	143552	128032
8960	131072	117360
9216	147264	134832
9472	131840	120016
9728	129184	116400
9984	126208	113968
10240	115296	103616
10496	123120	111840
10752	113584	103008
11008	115248	104512
11264	105056	93008
11520	104960	93696
11776	103360	91296
12032	99776	86464
12288	101104	89776
12544	92656	82128
12800	92416	82272
13056	101776	92048
13312	107104	96112
13568	86224	76480
13824	88096	77872
14080	85600	75856
14336	87920	78208
14592	94896	86432
14848	87536	78432
15104	81360	70976
15360	75472	66576
15616	73248	63648
15872	76048	67376
16128	70528	62240
16384	143600	125152
16896	146624	129536
17408	138272	120848
17920	144544	127328
18432	132272	115440
18944	124896	110240
19456	121696	107440
19968	121136	107616
20480	134016	121040
20992	120240	106608
21504	133184	120064
22016	123712	106912
22528	124592	107408
23040	123904	107648
23552	115472	97040
24064	120144	97952
24576	109200	90272
25088	99168	87760
25600	96432	85488
26112	102352	91808
26624	102320	90336
27136	100240	87552
27648	99792	88128
28160	100112	89024
28672	95872	84400
29184	88752	78304
29696	88272	79120
30208	88544	79120
30720	91168	81408
31232	85136	74240
31744	84992	75424
32256	84464	73920
32768	176960	156272
33792	166208	148800
34816	163888	144512
35840	159296	141200
36864	181248	151936
37888	176352	139120
38912	160432	129184
39936	180592	138544
40960	182672	143904
41984	161184	134720
43008	152160	129120
44032	155248	129296
45056	170960	147792
46080	164064	140528
47104	156816	136832
48128	145056	127392
49152	130608	113168
50176	140144	121312
51200	147312	128800
52224	144848	126000
53248	147920	127168
54272	156048	133120
55296	152736	130496
56320	147792	127952
57344	133712	114608
58368	130352	110368
59392	120976	102640
60416	126176	106912
61440	122304	103648
62464	130512	111776
63488	127936	110064
64512	133232	115744
65536	249696	216416
67584	239936	207520
69632	253184	222816
71680	279456	250176
73728	274896	245952
75776	247216	218752
77824	262032	233200
79872	262464	231184
81920	220288	188752
83968	208608	181584
86016	204800	179280
88064	194864	168064
90112	214080	186272
92160	211440	185328
94208	173856	150256
96256	154096	129536
98304	156432	130112
100352	181136	152432
102400	163584	137600
104448	169280	144448
106496	187600	163344
108544	203328	174352
110592	188272	151840
112640	170800	135392
114688	165920	131616
116736	163936	133440
118784	155488	123216
120832	154016	116000
122880	136960	111344
124928	140000	116240
126976	134816	111728
129024	139952	113728
131072	281088	231120
135168	278432	232480
139264	257024	215568
143360	252640	213552
147456	265232	227504
151552	265392	227536
155648	260976	222608
159744	279536	240080
163840	255440	219520
167936	276288	236512
172032	309280	272592
176128	322880	288928
180224	331200	299936
184320	306352	272112
188416	279744	247056
192512	291888	259152
196608	278256	243616
200704	286928	251824
204800	297968	262480
208896	315360	279072
212992	302576	269456
217088	267344	233808
221184	233040	200816
225280	224416	194832
229376	250576	220464
233472	292720	263568
237568	309696	282128
241664	258528	233280
245760	222144	201088
249856	250512	226912
253952	251072	227760
258048	242640	220080
262144	371408	328096
270336	285664	247952
278528	274240	240208
286720	240896	209568
294912	193584	161312
303104	173712	142816
311296	157264	125024
319488	170704	138656
327680	216976	185232
335872	238160	203552
344064	216864	180576
352256	245664	208496
360448	167840	131872
368640	254208	223184
376832	163696	131728
385024	176672	144272
393216	139168	106720
401408	145664	115952
409600	164304	134336
417792	192672	162576
425984	207200	174848
434176	255680	222256
442368	304960	273664
450560	291136	262960
458752	187360	161968
466944	131696	107872
475136	120416	96784
483328	147168	95552
491520	176096	101264
499712	195888	123504
507904	262368	155776
516096	319952	188704
524288	388240	283744
540672	263584	204128
557056	231056	167408
573440	166016	104688
589824	148816	92992
606208	146336	91232
622592	143520	86624
638976	150528	98960
655360	149056	101456
671744	104480	68864
688128	119408	83552
704512	185040	90848
720896	246288	115104
737280	342144	266688
753664	411008	331840
770048	822384	350624
786432	481152	258352
802816	379504	280144
819200	408208	273696
835584	305840	224112
851968	221248	191936
868352	206912	173024
884736	173184	136736
901120	140528	119264
917504	113424	93744
933888	140480	114448
950272	167984	128064
966656	204560	152608
983040	732240	632688
999424	994784	859696
1015808	1727680	1489088
1032192	159904	131568
1048576	543712	438288
1081344	435712	356736
1114112	360672	304480
1146880	152928	126464
1179648	136288	107888
1212416	212272	180944
1245184	151856	130768
1277952	217744	192064
1310720	190544	171504
1343488	263632	236656
1376256	248160	217520
1409024	287248	248848
1441792	192624	154640
1474560	248416	216224
1507328	694384	624928
1540096	729632	655040
1572864	878240	780688
1605632	2451552	2213344
1638400	1379936	1264416
1671168	419536	385664
1703936	208528	178880
1736704	1248368	1141280
1769472	268160	242208
1802240	109440	97200
1835008	131136	116112
1867776	267312	234768
1900544	180576	141200
1933312	142192	113248
1966080	268624	234240
1998848	2408720	2233744
2031616	248864	225024
2064384	53024	43568
2097152	114496	89776
2162688	659936	590560
2228224	593232	532432
2293760	127456	110992
2359296	22720	13248
2424832	64944	54464
2490368	137904	121504
2555904	11856	7232
2621440	17632	13632
2686976	23472	19904
2752512	16992	11936
2818048	14608	10096
2883584	13776	9696
2949120	18640	8928
3014656	15584	7696
3080192	13424	8448
3145728	14480	7888
3211264	14800	7616
3276800	14864	6896
3342336	11296	5456
3407872	10336	3792
3473408	10880	2752
3538944	12400	3056
3604480	10512	3728
3670016	11504	6080
3735552	7760	2944
3801088	6080	1920
3866624	5472	1936
3932160	5808	1296
3997696	10000	2544
4063232	10128	1504
4128768	6464	816
4194304	19952	10528
4325376	14416	2464
4456448	14736	1296
4587520	36160	3360
4718592	19312	9312
4849664	16960	3264
4980736	60480	11872
5111808	29856	3152
5242880	15344	320
5373952	37648	2384
5505024	48256	20112
5636096	32384	6640
5767168	139792	63408
5898240	299152	204880
6029312	160704	128112
6160384	14816	6384
6291456	48464	37648
6422528	64432	37504
6553600	356288	307456
6684672	239456	207648
6815744	28752	22736
6946816	68032	59712
7077888	30864	11904
7208960	17552	12736
7340032	32128	22032
7471104	49984	10480
7602176	41696	38576
7733248	25232	6944
7864320	3136	736
7995392	7600	5248
8126464	9424	5024
8257536	19840	15648
8388608	38208	18800
8650752	178064	150416
8912896	157376	139680
9175040	3328	2224
9437184	1504	1104
9699328	11056	10272
9961472	1360	848
10223616	800	112
10485760	17040	272
10747904	6640	160
11010048	14688	480
11272192	12720	688
11534336	19920	1024
11796480	16640	704
12058624	15088	304
12320768	12752	256
12582912	9968	272
12845056	7728	256
13107200	10432	7072
13369344	9792	4272
13631488	52912	49184
13893632	71152	61488
14155776	70192	62448
14417920	119712	101632
14680064	81936	53120
14942208	167104	53552
15204352	126784	40848
15466496	59648	19840
15728640	4032	688
15990784	1712	288
16252928	4848	720
16515072	14816	13104
16777216	40896	26176
17301504	71568	43856
17825792	86864	21456
18350080	27328	2000
18874368	27056	7888
19398656	86432	72528
19922944	171376	158272
20447232	154912	113776
20971520	303712	165312
21495808	235344	120128
22020096	60432	35664
22544384	152912	60368
23068672	14848	2336
23592960	17904	9360
24117248	11264	1616
24641536	38208	28128
25165824	51984	41392
25690112	75072	59040
26214400	36704	4736
26738688	155472	79760
27262976	54928	47008
27787264	78960	69360
28311552	13392	6656
28835840	85136	39680
29360128	45632	12672
29884416	2800	2048
30408704	3296	1120
30932992	1088	0
31457280	480	272
31981568	1648	64
32505856	1088	96
33030144	4800	80
33554432	1280	32
34603008	3408	0
35651584	1344	16
36700160	32	16
37748736	3424	2224
38797312	3696	2832
39845888	368	128
40894464	1968	80
41943040	42192	27744
42991616	6224	4992
44040192	39008	32992
45088768	6880	3872
46137344	2656	32
47185920	976	80
48234496	1472	96
49283072	5456	48
50331648	12032	12000
51380224	8848	7488
52428800	1904	1184
53477376	15856	13104
54525952	1520	192
55574528	27264	20640
56623104	480	0
57671680	1104	352
58720256	80	16
59768832	784	720
60817408	112	16
61865984	176	0
62914560	5056	2320
63963136	1488	256
65011712	15072	12288
66060288	80	16
67108864	224	0
69206016	1584	224
71303168	1904	208
73400320	272	128
75497472	224	224
77594624	112	32
79691776	112	16
81788928	544	128
83886080	2768	176
85983232	1760	912
88080384	4960	1392
90177536	80	32
92274688	9024	2224
94371840	272	256
96468992	32	32
98566144	16	0
100663296	32	0
102760448	48	32
104857600	3552	1072
106954752	1328	1280
109051904	8048	64
111149056	6800	64
113246208	15712	8208
115343360	16	16
117440512	128	0
119537664	16	0
121634816	32	32
123731968	64	48
125829120	112	32
127926272	32	0
130023424	14304	7248
132120576	13776	6768
134217728	1904	400
138412032	64	64
142606336	416	240
146800640	704	0
150994944	1216	0
155189248	704	464
159383552	512	80
163577856	32	32
167772160	16	16
171966464	176	0
176160768	112	64
180355072	480	352
184549376	416	400
188743680	48	32
192937984	16	0
197132288	16	16
201326592	48	0
205520896	16	16
209715200	32	16
213909504	192	128
218103808	272	272
222298112	16	16
226492416	0	0
230686720	32	0
234881024	16	16
239075328	80	80
243269632	0	0
247463936	32	32
251658240	0	0
255852544	0	0
260046848	0	0
264241152	16	0
268435456	0	0
276824064	0	0
285212672	48	0
293601280	0	0
301989888	0	0
310378496	0	0
318767104	0	0
327155712	0	0
335544320	0	0
343932928	0	0
352321536	0	0
360710144	0	0
369098752	0	0
377487360	0	0
385875968	0	0
394264576	0	0
402653184	0	0
411041792	0	0
419430400	0	0
427819008	0	0
436207616	0	0
444596224	0	0
452984832	0	0
461373440	0	0
469762048	0	0
478150656	0	0
486539264	0	0
494927872	0	0
503316480	0	0
511705088	0	0
520093696	0	0
528482304	0	0
536870912	0	0
553648128	0	0
570425344	0	0
587202560	0	0
603979776	0	0
620756992	0	0
637534208	0	0
654311424	0	0
671088640	0	0
687865856	0	0
704643072	0	0
721420288	0	0
738197504	0	0
754974720	0	0
771751936	0	0
788529152	0	0
805306368	0	0
822083584	0	0
838860800	0	0
855638016	0	0
872415232	0	0
889192448	0	0
905969664	0	0
922746880	0	0
939524096	0	0
956301312	0	0
973078528	0	0
989855744	0	0
1006632960	0	0
1023410176	0	0
1040187392	0	0
1056964608	0	0
1073741824	0	0
1107296256	0	0
1140850688	0	0
1174405120	0	0
1207959552	0	0
1241513984	0	0
1275068416	0	0
1308622848	0	0
1342177280	0	0
1375731712	0	0
1409286144	0	0
1442840576	0	0
1476395008	0	0
1509949440	0	0
1543503872	0	0
1577058304	0	0
1610612736	0	0
1644167168	0	0
1677721600	0	0
1711276032	0	0
1744830464	0	0
1778384896	0	0
1811939328	0	0
1845493760	0	0
1879048192	0	0
1912602624	0	0
1946157056	0	0
1979711488	0	0
2013265920	0	0
2046820352	0	0
2080374784	0	0
2113929216	0	0
2147483648	0	0
2214592512	0	0
2281701376	0	0
2348810240	0	0
2415919104	0	0
2483027968	0	0
2550136832	0	0
2617245696	0	0
2684354560	0	0
2751463424	0	0
2818572288	0	0
2885681152	0	0
2952790016	0	0
3019898880	0	0
3087007744	0	0
3154116608	0	0
3221225472	0	0
3288334336	0	0
3355443200	0	0
3422552064	0	0
3489660928	0	0
3556769792	0	0
3623878656	0	0
3690987520	0	0
3758096384	0	0
3825205248	0	0
3892314112	0	0
3959422976	0	0
4026531840	0	0
4093640704	0	0
4160749568	0	0
4227858432	0	0
~~~~~~~~~~Reuse Distance Profiler output end~~~~~~~~~~

DRAM Statistics
 CHANNEL 0
 RQ ROW_BUFFER_HIT:    4913082  ROW_BUFFER_MISS:   28545356
 DBUS AVG_CONGESTED_CYCLE:    3.96654
 WQ ROW_BUFFER_HIT:     796611  ROW_BUFFER_MISS:   11322698  FULL:          0


CPU 0 Branch Prediction Accuracy: 92.2567% MPKI: 15.3279 Average ROB Occupancy at Mispredict: 35.1595
Branch type MPKI
BRANCH_DIRECT_JUMP: 1.6e-05
BRANCH_INDIRECT: 3.26667e-05
BRANCH_CONDITIONAL: 15.3272
BRANCH_DIRECT_CALL: 9.33333e-06
BRANCH_INDIRECT_CALL: 7.2e-05
BRANCH_RETURN: 0.00058

