
*** ChampSim Multicore Out-of-Order Simulator ***

Warmup Instructions: 500000000
Simulation Instructions: 1500000000
Number of CPUs: 1
Off-chip DRAM Size: 4 GiB Channels: 1 Width: 64-bit Data Rate: 3200 MT/s

VirtualMemory physical capacity: 8588881920 num_ppages: 2096895
VirtualMemory page size: 4096 log2_page_size: 12

CPU 0 runs traces/453.povray-800B.champsimtrace.xz
CPU 0 Bimodal branch predictor
Basic BTB sets: 1024 ways: 8 indirect buffer size: 4096 RAS size: 64
Initializing LRU.
Initializing LRU.
Initializing LRU.
Initializing LRU.
Initializing rdLRU.
Initializing LRU.
Initializing LRU.
Heartbeat CPU 0 instructions: 10000003 cycles: 2510526 heartbeat IPC: 3.98323 cumulative IPC: 3.98323 (Simulation time: 0 hr 0 min 35 sec) 
Heartbeat CPU 0 instructions: 20000001 cycles: 5020200 heartbeat IPC: 3.98458 cumulative IPC: 3.98391 (Simulation time: 0 hr 1 min 12 sec) 
Heartbeat CPU 0 instructions: 30000004 cycles: 7528876 heartbeat IPC: 3.98617 cumulative IPC: 3.98466 (Simulation time: 0 hr 2 min 3 sec) 
Heartbeat CPU 0 instructions: 40000002 cycles: 10036547 heartbeat IPC: 3.98776 cumulative IPC: 3.98543 (Simulation time: 0 hr 2 min 52 sec) 
Heartbeat CPU 0 instructions: 50000001 cycles: 12544675 heartbeat IPC: 3.98704 cumulative IPC: 3.98575 (Simulation time: 0 hr 3 min 32 sec) 
Heartbeat CPU 0 instructions: 60000001 cycles: 15051833 heartbeat IPC: 3.98858 cumulative IPC: 3.98623 (Simulation time: 0 hr 4 min 8 sec) 
Heartbeat CPU 0 instructions: 70000002 cycles: 17556354 heartbeat IPC: 3.99278 cumulative IPC: 3.98716 (Simulation time: 0 hr 5 min 5 sec) 
Heartbeat CPU 0 instructions: 80000003 cycles: 20060023 heartbeat IPC: 3.99414 cumulative IPC: 3.98803 (Simulation time: 0 hr 5 min 44 sec) 
Heartbeat CPU 0 instructions: 90000001 cycles: 22562734 heartbeat IPC: 3.99567 cumulative IPC: 3.98888 (Simulation time: 0 hr 6 min 20 sec) 
Heartbeat CPU 0 instructions: 100000002 cycles: 25063430 heartbeat IPC: 3.99889 cumulative IPC: 3.98988 (Simulation time: 0 hr 6 min 56 sec) 
Heartbeat CPU 0 instructions: 110000003 cycles: 27563457 heartbeat IPC: 3.99996 cumulative IPC: 3.99079 (Simulation time: 0 hr 7 min 34 sec) 
Heartbeat CPU 0 instructions: 120000003 cycles: 30063457 heartbeat IPC: 4 cumulative IPC: 3.99156 (Simulation time: 0 hr 8 min 11 sec) 
Heartbeat CPU 0 instructions: 130000003 cycles: 32563457 heartbeat IPC: 4 cumulative IPC: 3.99221 (Simulation time: 0 hr 8 min 48 sec) 
Heartbeat CPU 0 instructions: 140000003 cycles: 35063457 heartbeat IPC: 4 cumulative IPC: 3.99276 (Simulation time: 0 hr 9 min 25 sec) 
Heartbeat CPU 0 instructions: 150000002 cycles: 37563488 heartbeat IPC: 3.99995 cumulative IPC: 3.99324 (Simulation time: 0 hr 10 min 4 sec) 
Heartbeat CPU 0 instructions: 160000003 cycles: 40063536 heartbeat IPC: 3.99992 cumulative IPC: 3.99366 (Simulation time: 0 hr 10 min 44 sec) 
Heartbeat CPU 0 instructions: 170000001 cycles: 42563551 heartbeat IPC: 3.99998 cumulative IPC: 3.99403 (Simulation time: 0 hr 11 min 32 sec) 
Heartbeat CPU 0 instructions: 180000002 cycles: 45063559 heartbeat IPC: 3.99999 cumulative IPC: 3.99436 (Simulation time: 0 hr 12 min 25 sec) 
Heartbeat CPU 0 instructions: 190000003 cycles: 47563566 heartbeat IPC: 3.99999 cumulative IPC: 3.99465 (Simulation time: 0 hr 13 min 4 sec) 
Heartbeat CPU 0 instructions: 200000000 cycles: 50063569 heartbeat IPC: 3.99999 cumulative IPC: 3.99492 (Simulation time: 0 hr 13 min 56 sec) 
Heartbeat CPU 0 instructions: 210000000 cycles: 52563569 heartbeat IPC: 4 cumulative IPC: 3.99516 (Simulation time: 0 hr 14 min 36 sec) 
Heartbeat CPU 0 instructions: 220000000 cycles: 55063569 heartbeat IPC: 4 cumulative IPC: 3.99538 (Simulation time: 0 hr 15 min 19 sec) 
Heartbeat CPU 0 instructions: 230000000 cycles: 57563569 heartbeat IPC: 4 cumulative IPC: 3.99558 (Simulation time: 0 hr 16 min 1 sec) 
Heartbeat CPU 0 instructions: 240000000 cycles: 60063569 heartbeat IPC: 4 cumulative IPC: 3.99577 (Simulation time: 0 hr 16 min 45 sec) 
Heartbeat CPU 0 instructions: 250000000 cycles: 62563569 heartbeat IPC: 4 cumulative IPC: 3.99594 (Simulation time: 0 hr 17 min 31 sec) 
Heartbeat CPU 0 instructions: 260000000 cycles: 65063569 heartbeat IPC: 4 cumulative IPC: 3.99609 (Simulation time: 0 hr 18 min 11 sec) 
Heartbeat CPU 0 instructions: 270000000 cycles: 67563617 heartbeat IPC: 3.99992 cumulative IPC: 3.99623 (Simulation time: 0 hr 18 min 52 sec) 
Heartbeat CPU 0 instructions: 280000000 cycles: 70063569 heartbeat IPC: 4.00008 cumulative IPC: 3.99637 (Simulation time: 0 hr 19 min 33 sec) 
Heartbeat CPU 0 instructions: 290000002 cycles: 72563613 heartbeat IPC: 3.99993 cumulative IPC: 3.99649 (Simulation time: 0 hr 20 min 9 sec) 
Heartbeat CPU 0 instructions: 300000000 cycles: 75063569 heartbeat IPC: 4.00007 cumulative IPC: 3.99661 (Simulation time: 0 hr 21 min 0 sec) 
Heartbeat CPU 0 instructions: 310000000 cycles: 77563569 heartbeat IPC: 4 cumulative IPC: 3.99672 (Simulation time: 0 hr 21 min 43 sec) 
Heartbeat CPU 0 instructions: 320000000 cycles: 80063569 heartbeat IPC: 4 cumulative IPC: 3.99682 (Simulation time: 0 hr 22 min 17 sec) 
Heartbeat CPU 0 instructions: 330000000 cycles: 82564957 heartbeat IPC: 3.99778 cumulative IPC: 3.99685 (Simulation time: 0 hr 22 min 59 sec) 
Heartbeat CPU 0 instructions: 340000003 cycles: 85064958 heartbeat IPC: 4 cumulative IPC: 3.99695 (Simulation time: 0 hr 23 min 41 sec) 
Heartbeat CPU 0 instructions: 350000003 cycles: 87564960 heartbeat IPC: 4 cumulative IPC: 3.99703 (Simulation time: 0 hr 24 min 21 sec) 
Heartbeat CPU 0 instructions: 360000003 cycles: 90064983 heartbeat IPC: 3.99996 cumulative IPC: 3.99711 (Simulation time: 0 hr 24 min 58 sec) 
Heartbeat CPU 0 instructions: 370000003 cycles: 92564969 heartbeat IPC: 4.00002 cumulative IPC: 3.99719 (Simulation time: 0 hr 25 min 38 sec) 
Heartbeat CPU 0 instructions: 380000002 cycles: 95064970 heartbeat IPC: 4 cumulative IPC: 3.99727 (Simulation time: 0 hr 26 min 32 sec) 
Heartbeat CPU 0 instructions: 390000003 cycles: 97564971 heartbeat IPC: 4 cumulative IPC: 3.99734 (Simulation time: 0 hr 27 min 14 sec) 
Heartbeat CPU 0 instructions: 400000002 cycles: 100065110 heartbeat IPC: 3.99978 cumulative IPC: 3.9974 (Simulation time: 0 hr 27 min 53 sec) 
Heartbeat CPU 0 instructions: 410000000 cycles: 102568704 heartbeat IPC: 3.99426 cumulative IPC: 3.99732 (Simulation time: 0 hr 28 min 34 sec) 
Heartbeat CPU 0 instructions: 420000001 cycles: 105074535 heartbeat IPC: 3.99069 cumulative IPC: 3.99716 (Simulation time: 0 hr 29 min 9 sec) 
Heartbeat CPU 0 instructions: 430000000 cycles: 107581808 heartbeat IPC: 3.9884 cumulative IPC: 3.99696 (Simulation time: 0 hr 29 min 45 sec) 
Heartbeat CPU 0 instructions: 440000002 cycles: 110090030 heartbeat IPC: 3.98689 cumulative IPC: 3.99673 (Simulation time: 0 hr 30 min 26 sec) 
Heartbeat CPU 0 instructions: 450000000 cycles: 112599438 heartbeat IPC: 3.985 cumulative IPC: 3.99647 (Simulation time: 0 hr 31 min 4 sec) 
Heartbeat CPU 0 instructions: 460000002 cycles: 115110511 heartbeat IPC: 3.98236 cumulative IPC: 3.99616 (Simulation time: 0 hr 31 min 41 sec) 
Heartbeat CPU 0 instructions: 470000000 cycles: 117622162 heartbeat IPC: 3.98144 cumulative IPC: 3.99585 (Simulation time: 0 hr 32 min 16 sec) 
Heartbeat CPU 0 instructions: 480000002 cycles: 120133004 heartbeat IPC: 3.98273 cumulative IPC: 3.99557 (Simulation time: 0 hr 32 min 51 sec) 
Heartbeat CPU 0 instructions: 490000000 cycles: 122638552 heartbeat IPC: 3.99114 cumulative IPC: 3.99548 (Simulation time: 0 hr 33 min 26 sec) 
Heartbeat CPU 0 instructions: 500000002 cycles: 125143024 heartbeat IPC: 3.99286 cumulative IPC: 3.99543 (Simulation time: 0 hr 34 min 6 sec) 

Warmup complete CPU 0 instructions: 500000002 cycles: 125143024 (Simulation time: 0 hr 34 min 6 sec) 

Heartbeat CPU 0 instructions: 510000001 cycles: 133942335 heartbeat IPC: 1.13645 cumulative IPC: 1.13645 (Simulation time: 0 hr 35 min 6 sec) 
Heartbeat CPU 0 instructions: 520000001 cycles: 142767502 heartbeat IPC: 1.13312 cumulative IPC: 1.13479 (Simulation time: 0 hr 35 min 50 sec) 
Heartbeat CPU 0 instructions: 530000000 cycles: 151357400 heartbeat IPC: 1.16416 cumulative IPC: 1.14441 (Simulation time: 0 hr 36 min 40 sec) 
Heartbeat CPU 0 instructions: 540000000 cycles: 159830163 heartbeat IPC: 1.18025 cumulative IPC: 1.15317 (Simulation time: 0 hr 37 min 26 sec) 
Heartbeat CPU 0 instructions: 550000000 cycles: 168314620 heartbeat IPC: 1.17863 cumulative IPC: 1.15817 (Simulation time: 0 hr 38 min 9 sec) 
Heartbeat CPU 0 instructions: 560000000 cycles: 176694078 heartbeat IPC: 1.19339 cumulative IPC: 1.16389 (Simulation time: 0 hr 38 min 53 sec) 
Heartbeat CPU 0 instructions: 570000002 cycles: 184992550 heartbeat IPC: 1.20504 cumulative IPC: 1.1696 (Simulation time: 0 hr 39 min 34 sec) 
Heartbeat CPU 0 instructions: 580000000 cycles: 193227548 heartbeat IPC: 1.21433 cumulative IPC: 1.17501 (Simulation time: 0 hr 40 min 15 sec) 
Heartbeat CPU 0 instructions: 590000003 cycles: 201432741 heartbeat IPC: 1.21874 cumulative IPC: 1.17971 (Simulation time: 0 hr 40 min 56 sec) 
Heartbeat CPU 0 instructions: 600000002 cycles: 209672296 heartbeat IPC: 1.21366 cumulative IPC: 1.18302 (Simulation time: 0 hr 41 min 37 sec) 
Heartbeat CPU 0 instructions: 610000000 cycles: 217964681 heartbeat IPC: 1.20593 cumulative IPC: 1.18507 (Simulation time: 0 hr 42 min 18 sec) 
Heartbeat CPU 0 instructions: 620000004 cycles: 226299820 heartbeat IPC: 1.19974 cumulative IPC: 1.18628 (Simulation time: 0 hr 42 min 59 sec) 
Heartbeat CPU 0 instructions: 630000000 cycles: 234675868 heartbeat IPC: 1.19388 cumulative IPC: 1.18686 (Simulation time: 0 hr 43 min 40 sec) 
Heartbeat CPU 0 instructions: 640000000 cycles: 243185016 heartbeat IPC: 1.17521 cumulative IPC: 1.18602 (Simulation time: 0 hr 44 min 21 sec) 
Heartbeat CPU 0 instructions: 650000002 cycles: 251786610 heartbeat IPC: 1.16258 cumulative IPC: 1.18443 (Simulation time: 0 hr 45 min 3 sec) 
Heartbeat CPU 0 instructions: 660000001 cycles: 260500632 heartbeat IPC: 1.14758 cumulative IPC: 1.18205 (Simulation time: 0 hr 45 min 43 sec) 
Heartbeat CPU 0 instructions: 670000000 cycles: 269257791 heartbeat IPC: 1.14192 cumulative IPC: 1.17962 (Simulation time: 0 hr 46 min 24 sec) 
Heartbeat CPU 0 instructions: 680000004 cycles: 277969215 heartbeat IPC: 1.14792 cumulative IPC: 1.17781 (Simulation time: 0 hr 47 min 5 sec) 
Heartbeat CPU 0 instructions: 690000001 cycles: 286770190 heartbeat IPC: 1.13624 cumulative IPC: 1.17554 (Simulation time: 0 hr 47 min 46 sec) 
Heartbeat CPU 0 instructions: 700000002 cycles: 295531820 heartbeat IPC: 1.14134 cumulative IPC: 1.17379 (Simulation time: 0 hr 48 min 27 sec) 
Heartbeat CPU 0 instructions: 710000004 cycles: 304313842 heartbeat IPC: 1.13869 cumulative IPC: 1.17207 (Simulation time: 0 hr 49 min 8 sec) 
Heartbeat CPU 0 instructions: 720000004 cycles: 313138820 heartbeat IPC: 1.13315 cumulative IPC: 1.17024 (Simulation time: 0 hr 49 min 50 sec) 
Heartbeat CPU 0 instructions: 730000002 cycles: 322025954 heartbeat IPC: 1.12522 cumulative IPC: 1.16821 (Simulation time: 0 hr 50 min 31 sec) 
Heartbeat CPU 0 instructions: 740000002 cycles: 330814482 heartbeat IPC: 1.13785 cumulative IPC: 1.16691 (Simulation time: 0 hr 51 min 13 sec) 
Heartbeat CPU 0 instructions: 750000004 cycles: 339400357 heartbeat IPC: 1.1647 cumulative IPC: 1.16682 (Simulation time: 0 hr 51 min 54 sec) 
Heartbeat CPU 0 instructions: 760000003 cycles: 347884683 heartbeat IPC: 1.17864 cumulative IPC: 1.16727 (Simulation time: 0 hr 52 min 34 sec) 
Heartbeat CPU 0 instructions: 770000003 cycles: 356337379 heartbeat IPC: 1.18305 cumulative IPC: 1.16785 (Simulation time: 0 hr 53 min 14 sec) 
Heartbeat CPU 0 instructions: 780000000 cycles: 364806625 heartbeat IPC: 1.18074 cumulative IPC: 1.1683 (Simulation time: 0 hr 53 min 54 sec) 
Heartbeat CPU 0 instructions: 790000001 cycles: 373185389 heartbeat IPC: 1.19349 cumulative IPC: 1.16916 (Simulation time: 0 hr 54 min 34 sec) 
Heartbeat CPU 0 instructions: 800000001 cycles: 381625314 heartbeat IPC: 1.18484 cumulative IPC: 1.16967 (Simulation time: 0 hr 55 min 14 sec) 
Heartbeat CPU 0 instructions: 810000000 cycles: 390089815 heartbeat IPC: 1.1814 cumulative IPC: 1.17005 (Simulation time: 0 hr 55 min 55 sec) 
Heartbeat CPU 0 instructions: 820000003 cycles: 398548185 heartbeat IPC: 1.18226 cumulative IPC: 1.17042 (Simulation time: 0 hr 56 min 41 sec) 
Heartbeat CPU 0 instructions: 830000000 cycles: 406978655 heartbeat IPC: 1.18617 cumulative IPC: 1.1709 (Simulation time: 0 hr 57 min 26 sec) 
Heartbeat CPU 0 instructions: 840000000 cycles: 415423044 heartbeat IPC: 1.18422 cumulative IPC: 1.17128 (Simulation time: 0 hr 58 min 20 sec) 
Heartbeat CPU 0 instructions: 850000000 cycles: 423866420 heartbeat IPC: 1.18436 cumulative IPC: 1.17165 (Simulation time: 0 hr 59 min 9 sec) 
Heartbeat CPU 0 instructions: 860000001 cycles: 432333677 heartbeat IPC: 1.18102 cumulative IPC: 1.17191 (Simulation time: 0 hr 59 min 49 sec) 
Heartbeat CPU 0 instructions: 870000001 cycles: 440816723 heartbeat IPC: 1.17882 cumulative IPC: 1.1721 (Simulation time: 1 hr 0 min 30 sec) 
Heartbeat CPU 0 instructions: 880000001 cycles: 449300080 heartbeat IPC: 1.17878 cumulative IPC: 1.17227 (Simulation time: 1 hr 1 min 11 sec) 
Heartbeat CPU 0 instructions: 890000003 cycles: 457736450 heartbeat IPC: 1.18534 cumulative IPC: 1.1726 (Simulation time: 1 hr 1 min 52 sec) 
Heartbeat CPU 0 instructions: 900000000 cycles: 466133507 heartbeat IPC: 1.19089 cumulative IPC: 1.17305 (Simulation time: 1 hr 2 min 32 sec) 
Heartbeat CPU 0 instructions: 910000003 cycles: 474524867 heartbeat IPC: 1.1917 cumulative IPC: 1.1735 (Simulation time: 1 hr 3 min 13 sec) 
Heartbeat CPU 0 instructions: 920000003 cycles: 482912116 heartbeat IPC: 1.19229 cumulative IPC: 1.17394 (Simulation time: 1 hr 3 min 53 sec) 
Heartbeat CPU 0 instructions: 930000000 cycles: 491306798 heartbeat IPC: 1.19123 cumulative IPC: 1.17434 (Simulation time: 1 hr 4 min 33 sec) 
Heartbeat CPU 0 instructions: 940000000 cycles: 499748284 heartbeat IPC: 1.18463 cumulative IPC: 1.17457 (Simulation time: 1 hr 5 min 14 sec) 
Heartbeat CPU 0 instructions: 950000001 cycles: 508201699 heartbeat IPC: 1.18295 cumulative IPC: 1.17475 (Simulation time: 1 hr 5 min 55 sec) 
Heartbeat CPU 0 instructions: 960000001 cycles: 516653334 heartbeat IPC: 1.1832 cumulative IPC: 1.17494 (Simulation time: 1 hr 6 min 36 sec) 
Heartbeat CPU 0 instructions: 970000000 cycles: 524964644 heartbeat IPC: 1.20318 cumulative IPC: 1.17552 (Simulation time: 1 hr 7 min 17 sec) 
Heartbeat CPU 0 instructions: 980000004 cycles: 533102822 heartbeat IPC: 1.22878 cumulative IPC: 1.17659 (Simulation time: 1 hr 7 min 58 sec) 
Heartbeat CPU 0 instructions: 990000002 cycles: 541299243 heartbeat IPC: 1.22004 cumulative IPC: 1.17744 (Simulation time: 1 hr 8 min 39 sec) 
Heartbeat CPU 0 instructions: 1000000000 cycles: 550060603 heartbeat IPC: 1.14138 cumulative IPC: 1.1767 (Simulation time: 1 hr 9 min 20 sec) 
Heartbeat CPU 0 instructions: 1010000002 cycles: 558996476 heartbeat IPC: 1.11909 cumulative IPC: 1.17551 (Simulation time: 1 hr 10 min 2 sec) 
Heartbeat CPU 0 instructions: 1020000002 cycles: 567828235 heartbeat IPC: 1.13228 cumulative IPC: 1.17465 (Simulation time: 1 hr 10 min 44 sec) 
Heartbeat CPU 0 instructions: 1030000003 cycles: 576710360 heartbeat IPC: 1.12586 cumulative IPC: 1.17369 (Simulation time: 1 hr 11 min 26 sec) 
Heartbeat CPU 0 instructions: 1040000000 cycles: 585483137 heartbeat IPC: 1.13989 cumulative IPC: 1.17305 (Simulation time: 1 hr 12 min 8 sec) 
Heartbeat CPU 0 instructions: 1050000000 cycles: 594219764 heartbeat IPC: 1.14461 cumulative IPC: 1.17252 (Simulation time: 1 hr 12 min 49 sec) 
Heartbeat CPU 0 instructions: 1060000002 cycles: 602845629 heartbeat IPC: 1.1593 cumulative IPC: 1.17228 (Simulation time: 1 hr 13 min 30 sec) 
Heartbeat CPU 0 instructions: 1070000000 cycles: 611367731 heartbeat IPC: 1.17342 cumulative IPC: 1.1723 (Simulation time: 1 hr 14 min 11 sec) 
Heartbeat CPU 0 instructions: 1080000001 cycles: 619667202 heartbeat IPC: 1.2049 cumulative IPC: 1.17284 (Simulation time: 1 hr 14 min 52 sec) 
Heartbeat CPU 0 instructions: 1090000000 cycles: 627809649 heartbeat IPC: 1.22813 cumulative IPC: 1.17374 (Simulation time: 1 hr 15 min 33 sec) 
Heartbeat CPU 0 instructions: 1100000000 cycles: 635884248 heartbeat IPC: 1.23845 cumulative IPC: 1.17476 (Simulation time: 1 hr 16 min 14 sec) 
Heartbeat CPU 0 instructions: 1110000000 cycles: 643977512 heartbeat IPC: 1.2356 cumulative IPC: 1.17571 (Simulation time: 1 hr 16 min 55 sec) 
Heartbeat CPU 0 instructions: 1120000004 cycles: 652097807 heartbeat IPC: 1.23148 cumulative IPC: 1.17657 (Simulation time: 1 hr 17 min 36 sec) 
Heartbeat CPU 0 instructions: 1130000002 cycles: 660303603 heartbeat IPC: 1.21865 cumulative IPC: 1.17722 (Simulation time: 1 hr 18 min 18 sec) 
Heartbeat CPU 0 instructions: 1140000004 cycles: 668555160 heartbeat IPC: 1.21189 cumulative IPC: 1.17774 (Simulation time: 1 hr 18 min 59 sec) 
Heartbeat CPU 0 instructions: 1150000003 cycles: 676860024 heartbeat IPC: 1.20411 cumulative IPC: 1.17814 (Simulation time: 1 hr 19 min 39 sec) 
Heartbeat CPU 0 instructions: 1160000001 cycles: 685173827 heartbeat IPC: 1.20282 cumulative IPC: 1.17851 (Simulation time: 1 hr 20 min 20 sec) 
Heartbeat CPU 0 instructions: 1170000001 cycles: 693539620 heartbeat IPC: 1.19534 cumulative IPC: 1.17875 (Simulation time: 1 hr 21 min 8 sec) 
Heartbeat CPU 0 instructions: 1180000002 cycles: 701865594 heartbeat IPC: 1.20106 cumulative IPC: 1.17908 (Simulation time: 1 hr 22 min 13 sec) 
Heartbeat CPU 0 instructions: 1190000004 cycles: 709929466 heartbeat IPC: 1.2401 cumulative IPC: 1.17992 (Simulation time: 1 hr 22 min 56 sec) 
Heartbeat CPU 0 instructions: 1200000002 cycles: 717750268 heartbeat IPC: 1.27864 cumulative IPC: 1.18122 (Simulation time: 1 hr 23 min 39 sec) 
Heartbeat CPU 0 instructions: 1210000000 cycles: 725415434 heartbeat IPC: 1.3046 cumulative IPC: 1.1828 (Simulation time: 1 hr 24 min 22 sec) 
Heartbeat CPU 0 instructions: 1220000003 cycles: 732840952 heartbeat IPC: 1.34671 cumulative IPC: 1.1848 (Simulation time: 1 hr 25 min 5 sec) 
Heartbeat CPU 0 instructions: 1230000001 cycles: 740153519 heartbeat IPC: 1.36751 cumulative IPC: 1.18697 (Simulation time: 1 hr 25 min 51 sec) 
Heartbeat CPU 0 instructions: 1240000000 cycles: 747528848 heartbeat IPC: 1.35587 cumulative IPC: 1.18897 (Simulation time: 1 hr 26 min 45 sec) 
Heartbeat CPU 0 instructions: 1250000001 cycles: 755077309 heartbeat IPC: 1.32477 cumulative IPC: 1.1906 (Simulation time: 1 hr 27 min 34 sec) 
Heartbeat CPU 0 instructions: 1260000000 cycles: 762718452 heartbeat IPC: 1.3087 cumulative IPC: 1.19202 (Simulation time: 1 hr 28 min 17 sec) 
Heartbeat CPU 0 instructions: 1270000004 cycles: 770419325 heartbeat IPC: 1.29855 cumulative IPC: 1.19329 (Simulation time: 1 hr 28 min 59 sec) 
Heartbeat CPU 0 instructions: 1280000004 cycles: 778132807 heartbeat IPC: 1.29643 cumulative IPC: 1.19451 (Simulation time: 1 hr 29 min 41 sec) 
Heartbeat CPU 0 instructions: 1290000002 cycles: 785794616 heartbeat IPC: 1.30517 cumulative IPC: 1.19579 (Simulation time: 1 hr 30 min 23 sec) 
Heartbeat CPU 0 instructions: 1300000000 cycles: 793444533 heartbeat IPC: 1.3072 cumulative IPC: 1.19706 (Simulation time: 1 hr 31 min 5 sec) 
Heartbeat CPU 0 instructions: 1310000003 cycles: 801087709 heartbeat IPC: 1.30836 cumulative IPC: 1.19832 (Simulation time: 1 hr 31 min 47 sec) 
Heartbeat CPU 0 instructions: 1320000002 cycles: 808711431 heartbeat IPC: 1.3117 cumulative IPC: 1.19959 (Simulation time: 1 hr 32 min 29 sec) 
Heartbeat CPU 0 instructions: 1330000002 cycles: 816353354 heartbeat IPC: 1.30857 cumulative IPC: 1.20079 (Simulation time: 1 hr 33 min 11 sec) 
Heartbeat CPU 0 instructions: 1340000001 cycles: 824012528 heartbeat IPC: 1.30562 cumulative IPC: 1.20194 (Simulation time: 1 hr 33 min 53 sec) 
Heartbeat CPU 0 instructions: 1350000001 cycles: 831676080 heartbeat IPC: 1.30488 cumulative IPC: 1.20306 (Simulation time: 1 hr 34 min 36 sec) 
Heartbeat CPU 0 instructions: 1360000000 cycles: 839324628 heartbeat IPC: 1.30744 cumulative IPC: 1.20418 (Simulation time: 1 hr 35 min 17 sec) 
Heartbeat CPU 0 instructions: 1370000002 cycles: 846997093 heartbeat IPC: 1.30336 cumulative IPC: 1.20523 (Simulation time: 1 hr 35 min 58 sec) 
Heartbeat CPU 0 instructions: 1380000002 cycles: 854707243 heartbeat IPC: 1.29699 cumulative IPC: 1.2062 (Simulation time: 1 hr 36 min 39 sec) 
Heartbeat CPU 0 instructions: 1390000000 cycles: 862447208 heartbeat IPC: 1.292 cumulative IPC: 1.2071 (Simulation time: 1 hr 37 min 21 sec) 
Heartbeat CPU 0 instructions: 1400000004 cycles: 870185128 heartbeat IPC: 1.29234 cumulative IPC: 1.20799 (Simulation time: 1 hr 38 min 2 sec) 
Heartbeat CPU 0 instructions: 1410000003 cycles: 877917206 heartbeat IPC: 1.29331 cumulative IPC: 1.20886 (Simulation time: 1 hr 38 min 44 sec) 
Heartbeat CPU 0 instructions: 1420000003 cycles: 885654862 heartbeat IPC: 1.29238 cumulative IPC: 1.20971 (Simulation time: 1 hr 39 min 26 sec) 
Heartbeat CPU 0 instructions: 1430000000 cycles: 893229127 heartbeat IPC: 1.32026 cumulative IPC: 1.2108 (Simulation time: 1 hr 40 min 8 sec) 
Heartbeat CPU 0 instructions: 1440000000 cycles: 899911705 heartbeat IPC: 1.49643 cumulative IPC: 1.21327 (Simulation time: 1 hr 40 min 49 sec) 
Heartbeat CPU 0 instructions: 1450000002 cycles: 907730710 heartbeat IPC: 1.27894 cumulative IPC: 1.21392 (Simulation time: 1 hr 41 min 29 sec) 
Heartbeat CPU 0 instructions: 1460000004 cycles: 915539221 heartbeat IPC: 1.28065 cumulative IPC: 1.21458 (Simulation time: 1 hr 42 min 10 sec) 
Heartbeat CPU 0 instructions: 1470000004 cycles: 923345330 heartbeat IPC: 1.28105 cumulative IPC: 1.21523 (Simulation time: 1 hr 42 min 51 sec) 
Heartbeat CPU 0 instructions: 1480000003 cycles: 931142046 heartbeat IPC: 1.28259 cumulative IPC: 1.21588 (Simulation time: 1 hr 43 min 32 sec) 
Heartbeat CPU 0 instructions: 1490000001 cycles: 938936196 heartbeat IPC: 1.28301 cumulative IPC: 1.21653 (Simulation time: 1 hr 44 min 13 sec) 
Heartbeat CPU 0 instructions: 1500000002 cycles: 946734839 heartbeat IPC: 1.28227 cumulative IPC: 1.21715 (Simulation time: 1 hr 44 min 54 sec) 
Heartbeat CPU 0 instructions: 1510000002 cycles: 954567144 heartbeat IPC: 1.27676 cumulative IPC: 1.21771 (Simulation time: 1 hr 45 min 35 sec) 
Heartbeat CPU 0 instructions: 1520000001 cycles: 962432870 heartbeat IPC: 1.27134 cumulative IPC: 1.21822 (Simulation time: 1 hr 46 min 17 sec) 
Heartbeat CPU 0 instructions: 1530000002 cycles: 970333610 heartbeat IPC: 1.2657 cumulative IPC: 1.21866 (Simulation time: 1 hr 46 min 58 sec) 
Heartbeat CPU 0 instructions: 1540000004 cycles: 978405793 heartbeat IPC: 1.23882 cumulative IPC: 1.21885 (Simulation time: 1 hr 47 min 40 sec) 
Heartbeat CPU 0 instructions: 1550000003 cycles: 986676969 heartbeat IPC: 1.20902 cumulative IPC: 1.21876 (Simulation time: 1 hr 48 min 22 sec) 
Heartbeat CPU 0 instructions: 1560000004 cycles: 995068581 heartbeat IPC: 1.19167 cumulative IPC: 1.2185 (Simulation time: 1 hr 49 min 5 sec) 
Heartbeat CPU 0 instructions: 1570000002 cycles: 1003628833 heartbeat IPC: 1.16819 cumulative IPC: 1.218 (Simulation time: 1 hr 49 min 46 sec) 
Heartbeat CPU 0 instructions: 1580000002 cycles: 1012256978 heartbeat IPC: 1.159 cumulative IPC: 1.21743 (Simulation time: 1 hr 50 min 28 sec) 
Heartbeat CPU 0 instructions: 1590000001 cycles: 1020958908 heartbeat IPC: 1.14917 cumulative IPC: 1.21677 (Simulation time: 1 hr 51 min 10 sec) 
Heartbeat CPU 0 instructions: 1600000002 cycles: 1029692028 heartbeat IPC: 1.14507 cumulative IPC: 1.21608 (Simulation time: 1 hr 51 min 52 sec) 
Heartbeat CPU 0 instructions: 1610000002 cycles: 1038455418 heartbeat IPC: 1.14111 cumulative IPC: 1.21536 (Simulation time: 1 hr 52 min 35 sec) 
Heartbeat CPU 0 instructions: 1620000000 cycles: 1047250105 heartbeat IPC: 1.13705 cumulative IPC: 1.21461 (Simulation time: 1 hr 53 min 38 sec) 
Heartbeat CPU 0 instructions: 1630000004 cycles: 1056063571 heartbeat IPC: 1.13463 cumulative IPC: 1.21385 (Simulation time: 1 hr 54 min 24 sec) 
Heartbeat CPU 0 instructions: 1640000002 cycles: 1064735089 heartbeat IPC: 1.1532 cumulative IPC: 1.21329 (Simulation time: 1 hr 55 min 15 sec) 
Heartbeat CPU 0 instructions: 1650000002 cycles: 1073180592 heartbeat IPC: 1.18406 cumulative IPC: 1.21303 (Simulation time: 1 hr 55 min 58 sec) 
Heartbeat CPU 0 instructions: 1660000003 cycles: 1081686262 heartbeat IPC: 1.17569 cumulative IPC: 1.2127 (Simulation time: 1 hr 56 min 41 sec) 
Heartbeat CPU 0 instructions: 1670000004 cycles: 1090118018 heartbeat IPC: 1.18599 cumulative IPC: 1.21247 (Simulation time: 1 hr 57 min 24 sec) 
Heartbeat CPU 0 instructions: 1680000004 cycles: 1098446426 heartbeat IPC: 1.20071 cumulative IPC: 1.21237 (Simulation time: 1 hr 58 min 7 sec) 
Heartbeat CPU 0 instructions: 1690000002 cycles: 1106706964 heartbeat IPC: 1.21057 cumulative IPC: 1.21235 (Simulation time: 1 hr 58 min 51 sec) 
Heartbeat CPU 0 instructions: 1700000000 cycles: 1114931033 heartbeat IPC: 1.21594 cumulative IPC: 1.21238 (Simulation time: 1 hr 59 min 33 sec) 
Heartbeat CPU 0 instructions: 1710000004 cycles: 1123158199 heartbeat IPC: 1.21549 cumulative IPC: 1.21241 (Simulation time: 2 hr 0 min 16 sec) 
Heartbeat CPU 0 instructions: 1720000003 cycles: 1131436947 heartbeat IPC: 1.20791 cumulative IPC: 1.21237 (Simulation time: 2 hr 0 min 58 sec) 
Heartbeat CPU 0 instructions: 1730000002 cycles: 1139757087 heartbeat IPC: 1.2019 cumulative IPC: 1.21228 (Simulation time: 2 hr 1 min 41 sec) 
Heartbeat CPU 0 instructions: 1740000002 cycles: 1148106536 heartbeat IPC: 1.19768 cumulative IPC: 1.21216 (Simulation time: 2 hr 2 min 23 sec) 
Heartbeat CPU 0 instructions: 1750000000 cycles: 1156534771 heartbeat IPC: 1.18649 cumulative IPC: 1.21195 (Simulation time: 2 hr 3 min 4 sec) 
Heartbeat CPU 0 instructions: 1760000001 cycles: 1165099403 heartbeat IPC: 1.16759 cumulative IPC: 1.21159 (Simulation time: 2 hr 3 min 45 sec) 
Heartbeat CPU 0 instructions: 1770000001 cycles: 1173783687 heartbeat IPC: 1.15151 cumulative IPC: 1.21109 (Simulation time: 2 hr 4 min 27 sec) 
Heartbeat CPU 0 instructions: 1780000000 cycles: 1182536522 heartbeat IPC: 1.14249 cumulative IPC: 1.21052 (Simulation time: 2 hr 5 min 8 sec) 
Heartbeat CPU 0 instructions: 1790000003 cycles: 1191265238 heartbeat IPC: 1.14564 cumulative IPC: 1.20999 (Simulation time: 2 hr 5 min 49 sec) 
Heartbeat CPU 0 instructions: 1800000003 cycles: 1200011211 heartbeat IPC: 1.14338 cumulative IPC: 1.20945 (Simulation time: 2 hr 6 min 30 sec) 
Heartbeat CPU 0 instructions: 1810000001 cycles: 1208803107 heartbeat IPC: 1.13741 cumulative IPC: 1.20887 (Simulation time: 2 hr 7 min 12 sec) 
Heartbeat CPU 0 instructions: 1820000004 cycles: 1217650423 heartbeat IPC: 1.13029 cumulative IPC: 1.20823 (Simulation time: 2 hr 7 min 54 sec) 
Heartbeat CPU 0 instructions: 1830000002 cycles: 1226462228 heartbeat IPC: 1.13484 cumulative IPC: 1.20764 (Simulation time: 2 hr 8 min 36 sec) 
Heartbeat CPU 0 instructions: 1840000004 cycles: 1235405036 heartbeat IPC: 1.11822 cumulative IPC: 1.20692 (Simulation time: 2 hr 9 min 17 sec) 
Heartbeat CPU 0 instructions: 1850000000 cycles: 1244273057 heartbeat IPC: 1.12765 cumulative IPC: 1.20629 (Simulation time: 2 hr 9 min 59 sec) 
Heartbeat CPU 0 instructions: 1860000004 cycles: 1252939045 heartbeat IPC: 1.15394 cumulative IPC: 1.20589 (Simulation time: 2 hr 10 min 40 sec) 
Heartbeat CPU 0 instructions: 1870000003 cycles: 1261469069 heartbeat IPC: 1.17233 cumulative IPC: 1.20564 (Simulation time: 2 hr 11 min 20 sec) 
Heartbeat CPU 0 instructions: 1880000004 cycles: 1269917971 heartbeat IPC: 1.18359 cumulative IPC: 1.20548 (Simulation time: 2 hr 12 min 1 sec) 
Heartbeat CPU 0 instructions: 1890000000 cycles: 1278377033 heartbeat IPC: 1.18216 cumulative IPC: 1.20531 (Simulation time: 2 hr 12 min 41 sec) 
Heartbeat CPU 0 instructions: 1900000001 cycles: 1286800831 heartbeat IPC: 1.18711 cumulative IPC: 1.20517 (Simulation time: 2 hr 13 min 21 sec) 
Heartbeat CPU 0 instructions: 1910000004 cycles: 1295228579 heartbeat IPC: 1.18656 cumulative IPC: 1.20504 (Simulation time: 2 hr 14 min 2 sec) 
Heartbeat CPU 0 instructions: 1920000001 cycles: 1303695812 heartbeat IPC: 1.18102 cumulative IPC: 1.20487 (Simulation time: 2 hr 14 min 44 sec) 
Heartbeat CPU 0 instructions: 1930000002 cycles: 1312154873 heartbeat IPC: 1.18216 cumulative IPC: 1.20471 (Simulation time: 2 hr 15 min 26 sec) 
Heartbeat CPU 0 instructions: 1940000001 cycles: 1320596895 heartbeat IPC: 1.18455 cumulative IPC: 1.20456 (Simulation time: 2 hr 16 min 8 sec) 
Heartbeat CPU 0 instructions: 1950000000 cycles: 1329042931 heartbeat IPC: 1.18399 cumulative IPC: 1.20442 (Simulation time: 2 hr 16 min 50 sec) 
Heartbeat CPU 0 instructions: 1960000001 cycles: 1337478262 heartbeat IPC: 1.18549 cumulative IPC: 1.20429 (Simulation time: 2 hr 17 min 32 sec) 
Heartbeat CPU 0 instructions: 1970000004 cycles: 1345945591 heartbeat IPC: 1.18101 cumulative IPC: 1.20413 (Simulation time: 2 hr 18 min 14 sec) 
Heartbeat CPU 0 instructions: 1980000002 cycles: 1354418616 heartbeat IPC: 1.18022 cumulative IPC: 1.20396 (Simulation time: 2 hr 18 min 55 sec) 
Heartbeat CPU 0 instructions: 1990000002 cycles: 1362911970 heartbeat IPC: 1.17739 cumulative IPC: 1.20378 (Simulation time: 2 hr 19 min 36 sec) 
*** Reached end of trace: traces/453.povray-800B.champsimtrace.xz
Heartbeat CPU 0 instructions: 2000000000 cycles: 1371374768 heartbeat IPC: 1.18164 cumulative IPC: 1.20363 (Simulation time: 2 hr 20 min 18 sec) 
Finished CPU 0 instructions: 1500000003 cycles: 1246231752 cumulative IPC: 1.20363 (Simulation time: 2 hr 20 min 18 sec) 

ChampSim completed all CPUs

Region of Interest Statistics

CPU 0 cumulative IPC: 1.20363 instructions: 1500000003 cycles: 1246231752
cpu0_DTLB TOTAL     ACCESS:  321550092  HIT:  317844976  MISS:    3705116
cpu0_DTLB LOAD      ACCESS:  217147156  HIT:  213838436  MISS:    3308720
cpu0_DTLB RFO       ACCESS:  104402936  HIT:  104006540  MISS:     396396
cpu0_DTLB PREFETCH  ACCESS:          0  HIT:          0  MISS:          0
cpu0_DTLB WRITEBACK ACCESS:          0  HIT:          0  MISS:          0
cpu0_DTLB TRANSLATION ACCESS:          0  HIT:          0  MISS:          0
cpu0_DTLB PREFETCH  REQUESTED:          0  ISSUED:          0  USEFUL:          0  USELESS:          0
cpu0_DTLB AVERAGE MISS LATENCY: 9.01435 cycles
cpu0_ITLB TOTAL     ACCESS:  150081666  HIT:  149831915  MISS:     249751
cpu0_ITLB LOAD      ACCESS:  150081666  HIT:  149831915  MISS:     249751
cpu0_ITLB RFO       ACCESS:          0  HIT:          0  MISS:          0
cpu0_ITLB PREFETCH  ACCESS:          0  HIT:          0  MISS:          0
cpu0_ITLB WRITEBACK ACCESS:          0  HIT:          0  MISS:          0
cpu0_ITLB TRANSLATION ACCESS:          0  HIT:          0  MISS:          0
cpu0_ITLB PREFETCH  REQUESTED:          0  ISSUED:          0  USEFUL:          0  USELESS:          0
cpu0_ITLB AVERAGE MISS LATENCY: 9 cycles
cpu0_L1I TOTAL     ACCESS:   61965633  HIT:   57853966  MISS:    4111667
cpu0_L1I LOAD      ACCESS:   61965633  HIT:   57853966  MISS:    4111667
cpu0_L1I RFO       ACCESS:          0  HIT:          0  MISS:          0
cpu0_L1I PREFETCH  ACCESS:          0  HIT:          0  MISS:          0
cpu0_L1I WRITEBACK ACCESS:          0  HIT:          0  MISS:          0
cpu0_L1I TRANSLATION ACCESS:          0  HIT:          0  MISS:          0
cpu0_L1I PREFETCH  REQUESTED:          0  ISSUED:          0  USEFUL:          0  USELESS:          0
cpu0_L1I AVERAGE MISS LATENCY: 11.0383 cycles
cpu0_STLB TOTAL     ACCESS:    3954868  HIT:    3954844  MISS:         24
cpu0_STLB LOAD      ACCESS:    3558472  HIT:    3558450  MISS:         22
cpu0_STLB RFO       ACCESS:     396396  HIT:     396394  MISS:          2
cpu0_STLB PREFETCH  ACCESS:          0  HIT:          0  MISS:          0
cpu0_STLB WRITEBACK ACCESS:          0  HIT:          0  MISS:          0
cpu0_STLB TRANSLATION ACCESS:          0  HIT:          0  MISS:          0
cpu0_STLB PREFETCH  REQUESTED:          0  ISSUED:          0  USEFUL:          0  USELESS:          0
cpu0_STLB AVERAGE MISS LATENCY: 216.25 cycles
cpu0_L1D TOTAL     ACCESS:  449158302  HIT:  441988738  MISS:    7169564
cpu0_L1D LOAD      ACCESS:  234512424  HIT:  228584208  MISS:    5928216
cpu0_L1D RFO       ACCESS:  214645854  HIT:  213404524  MISS:    1241330
cpu0_L1D PREFETCH  ACCESS:          0  HIT:          0  MISS:          0
cpu0_L1D WRITEBACK ACCESS:          0  HIT:          0  MISS:          0
cpu0_L1D TRANSLATION ACCESS:         24  HIT:          6  MISS:         18
cpu0_L1D PREFETCH  REQUESTED:          0  ISSUED:          0  USEFUL:          0  USELESS:          0
cpu0_L1D AVERAGE MISS LATENCY: 11.0983 cycles
cpu0_L2C TOTAL     ACCESS:   12786913  HIT:   12781468  MISS:       5445
cpu0_L2C LOAD      ACCESS:   10039155  HIT:   10034221  MISS:       4934
cpu0_L2C RFO       ACCESS:    1241037  HIT:    1240529  MISS:        508
cpu0_L2C PREFETCH  ACCESS:          0  HIT:          0  MISS:          0
cpu0_L2C WRITEBACK ACCESS:    1506703  HIT:    1506700  MISS:          3
cpu0_L2C TRANSLATION ACCESS:         18  HIT:         18  MISS:          0
cpu0_L2C PREFETCH  REQUESTED:          0  ISSUED:          0  USEFUL:          0  USELESS:          0
cpu0_L2C AVERAGE MISS LATENCY: 65.2105 cycles
LLC TOTAL     ACCESS:       6502  HIT:       4595  MISS:       1907
LLC LOAD      ACCESS:       4934  HIT:       3126  MISS:       1808
LLC RFO       ACCESS:        508  HIT:        409  MISS:         99
LLC PREFETCH  ACCESS:          0  HIT:          0  MISS:          0
LLC WRITEBACK ACCESS:       1060  HIT:       1060  MISS:          0
LLC TRANSLATION ACCESS:          0  HIT:          0  MISS:          0
LLC PREFETCH  REQUESTED:          0  ISSUED:          0  USEFUL:          0  USELESS:          0
LLC AVERAGE MISS LATENCY: 126.265 cycles
~~~~~~~~~~Reuse Distance Profiler output~~~~~~~~~~
0	139149024	11608768
1	59948944	21027280
2	30326080	12684352
3	20679872	11170880
4	16696528	9442256
5	13432944	8180688
6	11965424	7658400
7	10620144	6815888
8	10308384	6812720
9	9387312	6654880
10	9787200	6826864
11	7413184	5034944
12	6705024	4332656
13	7680592	5448384
14	6371904	4785104
15	5344592	3972992
16	5876176	4297664
17	5723840	4192672
18	5652160	4147296
19	5081280	3470672
20	4570192	3594672
21	4959808	3720448
22	5256464	3860784
23	6352848	4573088
24	5292880	3611408
25	5816352	4240320
26	5649920	4048400
27	3375488	2518240
28	2444624	1962640
29	2022128	1617488
30	1644480	1314976
31	1421232	1119264
32	1541392	1244592
33	1587888	1269392
34	1289232	999248
35	1352752	1091136
36	1414688	1182368
37	1170800	927680
38	1156592	874192
39	1119808	799744
40	932112	673456
41	1000288	727712
42	993488	787424
43	1023840	757584
44	929328	692880
45	850128	647952
46	928256	712528
47	903392	717792
48	1040864	831360
49	857056	679504
50	780016	562368
51	834704	582784
52	1051360	729728
53	949552	620272
54	1000944	741232
55	849008	588112
56	894848	641056
57	891184	565984
58	934624	591232
59	1031504	646048
60	906048	585536
61	833312	531728
62	908144	564080
63	879088	572080
64	1906368	1292656
66	1687152	1178336
68	1468000	1010272
70	1355472	945136
72	1462992	1097920
74	1282016	891088
76	1140976	798512
78	1362624	945792
80	1773456	1254064
82	1286112	929152
84	1303136	839248
86	1429344	974848
88	1339408	969056
90	1329856	971968
92	1309776	976944
94	1485552	1074224
96	1457328	1093088
98	1356384	857392
100	1180384	752896
102	1066512	683536
104	802720	547984
106	680304	457840
108	691632	496624
110	785296	509808
112	674896	524976
114	586352	405408
116	557712	381536
118	574336	388752
120	520224	388912
122	545920	397104
124	454912	343152
126	432656	341760
128	936496	677728
132	868896	601984
136	690416	479696
140	567808	392544
144	519680	343280
148	521872	365344
152	553360	397424
156	594048	396880
160	592576	432544
164	548560	420960
168	600992	450432
172	427296	341680
176	308784	225712
180	264704	174032
184	295680	185632
188	333616	229360
192	348320	253568
196	413424	319424
200	405360	318416
204	419936	328944
208	404304	330432
212	367984	300624
216	332128	247408
220	319120	236320
224	357088	247232
228	338896	244128
232	258864	171376
236	211376	160720
240	260288	189744
244	273744	210448
248	150560	111872
252	138800	104208
256	399040	341920
264	452656	364464
272	411744	321456
280	367424	283472
288	510032	356784
296	734448	503392
304	589344	391872
312	475792	384704
320	379376	307040
328	426112	316448
336	340800	234112
344	339616	250592
352	403920	328816
360	522384	452272
368	434000	341296
376	337840	242288
384	337072	216432
392	377136	242928
400	279088	198496
408	289360	239584
416	267760	195600
424	368432	298736
432	321408	276064
440	333712	240208
448	405600	293600
456	514208	391312
464	510832	344000
472	564160	353024
480	433888	283952
488	348976	217040
496	334384	231328
504	294448	209136
512	541568	368080
528	540960	338928
544	637232	470160
560	1070672	806976
576	1028688	779312
592	485952	369792
608	374416	294352
624	224016	158720
640	279872	205168
656	358096	207232
672	238320	140000
688	332944	215296
704	255312	181456
720	204464	147744
736	209152	155568
752	269168	213968
768	204224	165104
784	193856	162400
800	188688	157008
816	170800	128544
832	128816	97888
848	107152	81648
864	99968	74464
880	91616	51200
896	85152	62896
912	90352	70496
928	81104	68528
944	73808	61344
960	68000	50096
976	72960	58688
992	70336	51760
1008	82672	58304
1024	246160	177776
1056	187600	132736
1088	108768	88704
1120	115296	88464
1152	120400	85344
1184	124992	87648
1216	113664	70608
1248	99808	52352
1280	115168	73968
1312	133792	93488
1344	114192	73840
1376	92736	66320
1408	101472	79120
1440	121360	95616
1472	111824	91248
1504	110352	95216
1536	148784	121712
1568	106544	83552
1600	66112	42880
1632	57280	41376
1664	65872	52592
1696	59936	49120
1728	68592	56784
1760	82512	71920
1792	74144	63568
1824	50688	44128
1856	43248	39008
1888	56608	49136
1920	66352	61568
1952	67840	63056
1984	85936	78080
2016	77568	70400
2048	193552	175936
2112	149104	135248
2176	240960	211152
2240	192912	173744
2304	219552	203408
2368	227744	209792
2432	181920	156560
2496	159280	127024
2560	177984	145696
2624	165248	133792
2688	182160	152064
2752	261792	233808
2816	188928	180592
2880	220400	205152
2944	222032	204016
3008	235312	217424
3072	200592	193280
3136	232384	223232
3200	244224	234912
3264	289696	279936
3328	252848	223472
3392	321632	306864
3456	328624	317440
3520	300736	287328
3584	352912	342336
3648	399152	388672
3712	400448	389360
3776	491536	480832
3840	523632	514304
3904	445264	435312
3968	544976	537184
4032	420272	407840
4096	1004544	931776
4224	1027488	961888
4352	1063120	1000528
4480	1018944	956992
4608	1034192	980640
4736	1016928	975056
4864	939216	899664
4992	998544	962928
5120	945040	896368
5248	1058464	991136
5376	923712	864432
5504	946800	879600
5632	825296	771728
5760	910656	867120
5888	805440	757168
6016	880688	820768
6144	879296	783104
6272	751136	657104
6400	772896	656672
6528	840032	733184
6656	910224	815552
6784	991120	908064
6912	811984	749552
7040	681504	628896
7168	705776	659744
7296	629584	556464
7424	665472	580800
7552	520672	446768
7680	623120	544800
7808	743728	661392
7936	713568	649184
8064	705248	644528
8192	1263072	1136528
8448	824256	743776
8704	676256	598944
8960	696368	613104
9216	542992	490912
9472	473744	430784
9728	449840	404112
9984	347696	309472
10240	275760	221008
10496	314608	262464
10752	518384	439696
11008	446448	392192
11264	330368	267216
11520	349104	303296
11776	951392	764928
12032	661008	542368
12288	687264	565168
12544	342352	274256
12800	126224	97616
13056	125488	92416
13312	93504	55968
13568	80288	51952
13824	78480	51168
14080	66096	39344
14336	52208	29792
14592	53664	26240
14848	50288	25760
15104	47536	22256
15360	42336	18064
15616	43472	19376
15872	40816	16928
16128	36512	20320
16384	87600	54544
16896	117136	78032
17408	182560	119808
17920	296608	223568
18432	462800	385424
18944	541696	455120
19456	366320	290704
19968	325600	270160
20480	126288	100352
20992	64720	46880
21504	62288	43136
22016	90720	68112
22528	75760	57056
23040	74576	55408
23552	118304	95888
24064	75840	52848
24576	86208	62208
25088	86880	61232
25600	61680	41392
26112	56416	38720
26624	55456	38352
27136	53296	37616
27648	48512	32624
28160	70480	50960
28672	63776	46784
29184	50816	35776
29696	57200	35664
30208	68160	41872
30720	60960	38672
31232	49344	32144
31744	41984	27472
32256	32896	21376
32768	57472	36416
33792	57744	33296
34816	82048	46464
35840	111248	71184
36864	100160	67968
37888	51328	32816
38912	56176	37120
39936	102464	71408
40960	90928	65376
41984	44240	30144
43008	27088	17936
44032	23648	16352
45056	21664	14864
46080	23648	16816
47104	22480	18128
48128	21248	15616
49152	18640	14352
50176	18592	14448
51200	11936	9312
52224	12448	8720
53248	12720	8272
54272	12672	8592
55296	12512	9184
56320	14496	10848
57344	14736	10656
58368	15920	11904
59392	20448	14336
60416	17536	11760
61440	16128	11328
62464	12592	9968
63488	10800	8576
64512	10832	8320
65536	19984	14464
67584	14480	9968
69632	23888	18160
71680	24192	19472
73728	19904	17152
75776	18400	14064
77824	15344	10752
79872	17440	12384
81920	15520	12848
83968	12928	10128
86016	14608	11248
88064	10192	7760
90112	10160	6912
92160	11712	7792
94208	10272	7984
96256	11792	9040
98304	12432	8912
100352	7984	5760
102400	6656	4640
104448	6848	5120
106496	8176	6464
108544	7744	5632
110592	8096	6176
112640	8160	6432
114688	8928	7280
116736	7680	6064
118784	8400	7152
120832	6608	5280
122880	5488	4464
124928	5152	4208
126976	4576	3664
129024	6256	5024
131072	14432	10512
135168	15856	12096
139264	11296	8288
143360	11056	7840
147456	10368	7856
151552	13936	10912
155648	12304	9536
159744	12656	10096
163840	8912	6784
167936	7424	5536
172032	7904	6112
176128	6592	5328
180224	5968	4832
184320	6416	5408
188416	7072	5664
192512	5648	4496
196608	4576	3824
200704	4448	3648
204800	4272	3648
208896	4736	4000
212992	4592	3824
217088	3808	2864
221184	5248	4384
225280	6080	5184
229376	4688	3920
233472	6240	5104
237568	6512	5600
241664	3792	3072
245760	3840	2800
249856	4144	3424
253952	4640	3744
258048	4272	3600
262144	6864	6064
270336	5632	5040
278528	4976	4016
286720	5088	4416
294912	4624	3840
303104	4640	4016
311296	4528	3744
319488	4512	3680
327680	4512	3472
335872	4256	3424
344064	4224	3728
352256	3744	3232
360448	3840	3520
368640	3728	3264
376832	3648	3024
385024	3312	2832
393216	3488	3232
401408	2864	2528
409600	3552	3184
417792	3648	3200
425984	3072	2672
434176	3168	2656
442368	2656	2448
450560	2448	2176
458752	2512	2304
466944	2624	2400
475136	2448	2160
483328	2112	1920
491520	2208	1760
499712	2736	2336
507904	1872	1584
516096	2240	2080
524288	4320	4048
540672	3712	3376
557056	3216	3152
573440	2336	2112
589824	2944	2704
606208	2976	2768
622592	2640	2288
638976	2768	2464
655360	2304	2128
671744	2384	2208
688128	2464	2288
704512	2352	2144
720896	1872	1728
737280	2304	2096
753664	2288	2192
770048	2000	1952
786432	2128	2080
802816	1904	1760
819200	2016	1952
835584	1584	1536
851968	1616	1552
868352	1312	1232
884736	1264	1248
901120	1504	1440
917504	1392	1376
933888	1488	1360
950272	1456	1408
966656	1600	1504
983040	1760	1664
999424	1312	1232
1015808	1232	1216
1032192	1296	1280
1048576	2304	2224
1081344	2288	2208
1114112	2400	2336
1146880	2624	2512
1179648	2336	2208
1212416	1712	1664
1245184	1952	1904
1277952	1808	1744
1310720	1824	1824
1343488	1520	1520
1376256	2272	2192
1409024	1680	1600
1441792	1632	1616
1474560	1472	1392
1507328	1936	1824
1540096	1744	1664
1572864	1376	1344
1605632	1504	1360
1638400	1456	1408
1671168	1152	1104
1703936	1136	1136
1736704	1072	1072
1769472	1296	1280
1802240	1216	1184
1835008	976	960
1867776	1008	1008
1900544	960	960
1933312	864	848
1966080	992	976
1998848	896	896
2031616	912	912
2064384	944	896
2097152	1488	1456
2162688	1968	1904
2228224	1440	1408
2293760	1408	1280
2359296	1456	1456
2424832	1376	1360
2490368	1248	1216
2555904	1200	1136
2621440	1152	1136
2686976	1376	1376
2752512	1184	1120
2818048	1264	1232
2883584	864	848
2949120	1072	1024
3014656	928	912
3080192	832	800
3145728	768	736
3211264	848	832
3276800	864	832
3342336	864	784
3407872	736	736
3473408	720	720
3538944	576	576
3604480	576	576
3670016	544	544
3735552	464	448
3801088	608	608
3866624	400	400
3932160	400	400
3997696	400	400
4063232	480	464
4128768	320	320
4194304	800	720
4325376	928	928
4456448	672	672
4587520	816	816
4718592	560	560
4849664	656	656
4980736	784	768
5111808	656	640
5242880	400	336
5373952	576	560
5505024	384	384
5636096	448	432
5767168	640	624
5898240	432	432
6029312	368	368
6160384	336	320
6291456	336	336
6422528	528	528
6553600	304	240
6684672	320	320
6815744	320	320
6946816	320	304
7077888	432	384
7208960	160	160
7340032	144	144
7471104	400	400
7602176	224	224
7733248	208	208
7864320	272	272
7995392	176	176
8126464	128	128
8257536	272	240
8388608	496	432
8650752	352	352
8912896	256	240
9175040	384	384
9437184	256	256
9699328	208	208
9961472	320	304
10223616	208	192
10485760	176	176
10747904	144	128
11010048	208	208
11272192	176	160
11534336	400	336
11796480	208	160
12058624	336	208
12320768	112	112
12582912	144	144
12845056	240	208
13107200	128	128
13369344	128	128
13631488	48	48
13893632	304	192
14155776	48	32
14417920	240	160
14680064	112	96
14942208	128	64
15204352	144	144
15466496	176	176
15728640	128	128
15990784	48	48
16252928	112	112
16515072	96	96
16777216	144	144
17301504	176	144
17825792	128	128
18350080	128	112
18874368	176	176
19398656	256	256
19922944	272	272
20447232	96	96
20971520	176	176
21495808	192	192
22020096	144	144
22544384	224	224
23068672	176	176
23592960	144	128
24117248	160	160
24641536	208	208
25165824	192	192
25690112	80	80
26214400	176	176
26738688	240	208
27262976	192	192
27787264	112	112
28311552	240	240
28835840	192	160
29360128	80	80
29884416	240	160
30408704	272	160
30932992	224	176
31457280	112	112
31981568	112	96
32505856	112	112
33030144	144	128
33554432	368	368
34603008	224	224
35651584	256	240
36700160	240	240
37748736	176	176
38797312	96	96
39845888	192	192
40894464	112	112
41943040	160	144
42991616	176	160
44040192	144	128
45088768	160	128
46137344	160	160
47185920	208	192
48234496	112	112
49283072	240	224
50331648	128	128
51380224	80	80
52428800	48	32
53477376	144	144
54525952	48	48
55574528	80	64
56623104	80	80
57671680	144	144
58720256	16	16
59768832	96	96
60817408	48	48
61865984	80	64
62914560	96	96
63963136	144	144
65011712	64	64
66060288	16	16
67108864	144	112
69206016	256	176
71303168	176	128
73400320	80	80
75497472	288	272
77594624	240	224
79691776	144	128
81788928	128	128
83886080	96	96
85983232	48	48
88080384	80	80
90177536	160	128
92274688	48	48
94371840	32	32
96468992	32	16
98566144	96	96
100663296	16	16
102760448	64	48
104857600	32	32
106954752	176	96
109051904	0	0
111149056	48	32
113246208	96	64
115343360	64	64
117440512	32	32
119537664	0	0
121634816	32	16
123731968	16	16
125829120	32	32
127926272	16	16
130023424	32	16
132120576	0	0
134217728	160	48
138412032	128	80
142606336	64	64
146800640	0	0
150994944	96	80
155189248	64	64
159383552	32	0
163577856	16	0
167772160	32	32
171966464	112	112
176160768	112	112
180355072	112	112
184549376	0	0
188743680	48	48
192937984	0	0
197132288	64	32
201326592	0	0
205520896	32	16
209715200	160	160
213909504	64	64
218103808	176	112
222298112	0	0
226492416	0	0
230686720	0	0
234881024	32	16
239075328	48	16
243269632	16	0
247463936	16	0
251658240	0	0
255852544	0	0
260046848	0	0
264241152	0	0
268435456	0	0
276824064	0	0
285212672	0	0
293601280	16	0
301989888	16	0
310378496	0	0
318767104	32	16
327155712	1488	1152
335544320	32	32
343932928	0	0
352321536	0	0
360710144	16	16
369098752	0	0
377487360	0	0
385875968	16	16
394264576	32	32
402653184	0	0
411041792	0	0
419430400	16	16
427819008	0	0
436207616	0	0
444596224	0	0
452984832	0	0
461373440	0	0
469762048	0	0
478150656	0	0
486539264	0	0
494927872	0	0
503316480	0	0
511705088	0	0
520093696	0	0
528482304	0	0
536870912	0	0
553648128	0	0
570425344	0	0
587202560	0	0
603979776	0	0
620756992	0	0
637534208	0	0
654311424	0	0
671088640	0	0
687865856	0	0
704643072	0	0
721420288	0	0
738197504	0	0
754974720	0	0
771751936	0	0
788529152	0	0
805306368	0	0
822083584	0	0
838860800	0	0
855638016	0	0
872415232	0	0
889192448	0	0
905969664	0	0
922746880	0	0
939524096	0	0
956301312	0	0
973078528	0	0
989855744	0	0
1006632960	0	0
1023410176	0	0
1040187392	0	0
1056964608	0	0
1073741824	0	0
1107296256	0	0
1140850688	0	0
1174405120	0	0
1207959552	0	0
1241513984	0	0
1275068416	0	0
1308622848	0	0
1342177280	0	0
1375731712	0	0
1409286144	0	0
1442840576	0	0
1476395008	0	0
1509949440	0	0
1543503872	0	0
1577058304	0	0
1610612736	0	0
1644167168	0	0
1677721600	0	0
1711276032	0	0
1744830464	0	0
1778384896	0	0
1811939328	0	0
1845493760	0	0
1879048192	0	0
1912602624	0	0
1946157056	0	0
1979711488	0	0
2013265920	0	0
2046820352	0	0
2080374784	0	0
2113929216	0	0
2147483648	0	0
2214592512	0	0
2281701376	0	0
2348810240	0	0
2415919104	0	0
2483027968	0	0
2550136832	0	0
2617245696	0	0
2684354560	0	0
2751463424	0	0
2818572288	0	0
2885681152	0	0
2952790016	0	0
3019898880	0	0
3087007744	0	0
3154116608	0	0
3221225472	0	0
3288334336	0	0
3355443200	0	0
3422552064	0	0
3489660928	0	0
3556769792	0	0
3623878656	0	0
3690987520	0	0
3758096384	0	0
3825205248	0	0
3892314112	0	0
3959422976	0	0
4026531840	0	0
4093640704	0	0
4160749568	0	0
4227858432	0	0
~~~~~~~~~~Reuse Distance Profiler output end~~~~~~~~~~

DRAM Statistics
 CHANNEL 0
 RQ ROW_BUFFER_HIT:        762  ROW_BUFFER_MISS:       1145
 DBUS AVG_CONGESTED_CYCLE:    3.87396
 WQ ROW_BUFFER_HIT:          0  ROW_BUFFER_MISS:          0  FULL:          0


CPU 0 Branch Prediction Accuracy: 92.35% MPKI: 11.6006 Average ROB Occupancy at Mispredict: 54.742
Branch type MPKI
BRANCH_DIRECT_JUMP: 6e-06
BRANCH_INDIRECT: 0.0128187
BRANCH_CONDITIONAL: 10.0588
BRANCH_DIRECT_CALL: 2e-06
BRANCH_INDIRECT_CALL: 0.698393
BRANCH_RETURN: 0.830593

