
*** ChampSim Multicore Out-of-Order Simulator ***

Warmup Instructions: 500000000
Simulation Instructions: 1500000000
Number of CPUs: 1
Off-chip DRAM Size: 4 GiB Channels: 1 Width: 64-bit Data Rate: 3200 MT/s

VirtualMemory physical capacity: 8588881920 num_ppages: 2096895
VirtualMemory page size: 4096 log2_page_size: 12

CPU 0 runs traces/453.povray-887B.champsimtrace.xz
CPU 0 Bimodal branch predictor
Basic BTB sets: 1024 ways: 8 indirect buffer size: 4096 RAS size: 64
Initializing LRU.
Initializing LRU.
Initializing LRU.
Initializing LRU.
Initializing rdLRU.
Initializing LRU.
Initializing LRU.
Heartbeat CPU 0 instructions: 10000001 cycles: 2500357 heartbeat IPC: 3.99943 cumulative IPC: 3.99943 (Simulation time: 0 hr 0 min 35 sec) 
Heartbeat CPU 0 instructions: 20000001 cycles: 5000357 heartbeat IPC: 4 cumulative IPC: 3.99971 (Simulation time: 0 hr 1 min 11 sec) 
Heartbeat CPU 0 instructions: 30000001 cycles: 7500357 heartbeat IPC: 4 cumulative IPC: 3.99981 (Simulation time: 0 hr 1 min 48 sec) 
Heartbeat CPU 0 instructions: 40000001 cycles: 10000357 heartbeat IPC: 4 cumulative IPC: 3.99986 (Simulation time: 0 hr 2 min 34 sec) 
Heartbeat CPU 0 instructions: 50000001 cycles: 12500357 heartbeat IPC: 4 cumulative IPC: 3.99989 (Simulation time: 0 hr 3 min 12 sec) 
Heartbeat CPU 0 instructions: 60000001 cycles: 15000357 heartbeat IPC: 4 cumulative IPC: 3.9999 (Simulation time: 0 hr 3 min 50 sec) 
Heartbeat CPU 0 instructions: 70000001 cycles: 17500357 heartbeat IPC: 4 cumulative IPC: 3.99992 (Simulation time: 0 hr 4 min 26 sec) 
Heartbeat CPU 0 instructions: 80000001 cycles: 20000357 heartbeat IPC: 4 cumulative IPC: 3.99993 (Simulation time: 0 hr 5 min 3 sec) 
Heartbeat CPU 0 instructions: 90000001 cycles: 22500357 heartbeat IPC: 4 cumulative IPC: 3.99994 (Simulation time: 0 hr 5 min 49 sec) 
Heartbeat CPU 0 instructions: 100000001 cycles: 25000357 heartbeat IPC: 4 cumulative IPC: 3.99994 (Simulation time: 0 hr 6 min 34 sec) 
Heartbeat CPU 0 instructions: 110000001 cycles: 27500357 heartbeat IPC: 4 cumulative IPC: 3.99995 (Simulation time: 0 hr 7 min 11 sec) 
Heartbeat CPU 0 instructions: 120000000 cycles: 30000363 heartbeat IPC: 3.99999 cumulative IPC: 3.99995 (Simulation time: 0 hr 7 min 45 sec) 
Heartbeat CPU 0 instructions: 130000003 cycles: 32500365 heartbeat IPC: 4 cumulative IPC: 3.99996 (Simulation time: 0 hr 8 min 20 sec) 
Heartbeat CPU 0 instructions: 140000003 cycles: 35000365 heartbeat IPC: 4 cumulative IPC: 3.99996 (Simulation time: 0 hr 8 min 56 sec) 
Heartbeat CPU 0 instructions: 150000003 cycles: 37500365 heartbeat IPC: 4 cumulative IPC: 3.99996 (Simulation time: 0 hr 9 min 32 sec) 
Heartbeat CPU 0 instructions: 160000003 cycles: 40000365 heartbeat IPC: 4 cumulative IPC: 3.99996 (Simulation time: 0 hr 10 min 9 sec) 
Heartbeat CPU 0 instructions: 170000001 cycles: 42501761 heartbeat IPC: 3.99777 cumulative IPC: 3.99983 (Simulation time: 0 hr 10 min 57 sec) 
Heartbeat CPU 0 instructions: 180000002 cycles: 45001779 heartbeat IPC: 3.99997 cumulative IPC: 3.99984 (Simulation time: 0 hr 11 min 34 sec) 
Heartbeat CPU 0 instructions: 190000003 cycles: 47501810 heartbeat IPC: 3.99995 cumulative IPC: 3.99985 (Simulation time: 0 hr 12 min 10 sec) 
Heartbeat CPU 0 instructions: 200000002 cycles: 50001837 heartbeat IPC: 3.99996 cumulative IPC: 3.99985 (Simulation time: 0 hr 12 min 58 sec) 
Heartbeat CPU 0 instructions: 210000001 cycles: 52501858 heartbeat IPC: 3.99997 cumulative IPC: 3.99986 (Simulation time: 0 hr 13 min 44 sec) 
Heartbeat CPU 0 instructions: 220000001 cycles: 55001858 heartbeat IPC: 4 cumulative IPC: 3.99986 (Simulation time: 0 hr 14 min 47 sec) 
Heartbeat CPU 0 instructions: 230000001 cycles: 57501858 heartbeat IPC: 4 cumulative IPC: 3.99987 (Simulation time: 0 hr 15 min 39 sec) 
Heartbeat CPU 0 instructions: 240000001 cycles: 60001858 heartbeat IPC: 4 cumulative IPC: 3.99988 (Simulation time: 0 hr 16 min 16 sec) 
Heartbeat CPU 0 instructions: 250000000 cycles: 62501858 heartbeat IPC: 4 cumulative IPC: 3.99988 (Simulation time: 0 hr 16 min 52 sec) 
Heartbeat CPU 0 instructions: 260000002 cycles: 65003557 heartbeat IPC: 3.99728 cumulative IPC: 3.99978 (Simulation time: 0 hr 17 min 31 sec) 
Heartbeat CPU 0 instructions: 270000003 cycles: 67508570 heartbeat IPC: 3.992 cumulative IPC: 3.99949 (Simulation time: 0 hr 18 min 7 sec) 
Heartbeat CPU 0 instructions: 280000000 cycles: 70014039 heartbeat IPC: 3.99127 cumulative IPC: 3.9992 (Simulation time: 0 hr 18 min 52 sec) 
Heartbeat CPU 0 instructions: 290000000 cycles: 72519532 heartbeat IPC: 3.99123 cumulative IPC: 3.99892 (Simulation time: 0 hr 19 min 38 sec) 
Heartbeat CPU 0 instructions: 300000001 cycles: 75025209 heartbeat IPC: 3.99094 cumulative IPC: 3.99866 (Simulation time: 0 hr 20 min 15 sec) 
Heartbeat CPU 0 instructions: 310000001 cycles: 77532798 heartbeat IPC: 3.98789 cumulative IPC: 3.99831 (Simulation time: 0 hr 20 min 51 sec) 
Heartbeat CPU 0 instructions: 320000000 cycles: 80041429 heartbeat IPC: 3.98624 cumulative IPC: 3.99793 (Simulation time: 0 hr 21 min 38 sec) 
Heartbeat CPU 0 instructions: 330000001 cycles: 82550176 heartbeat IPC: 3.98605 cumulative IPC: 3.99757 (Simulation time: 0 hr 22 min 19 sec) 
Heartbeat CPU 0 instructions: 340000002 cycles: 85058856 heartbeat IPC: 3.98616 cumulative IPC: 3.99723 (Simulation time: 0 hr 23 min 1 sec) 
Heartbeat CPU 0 instructions: 350000001 cycles: 87568225 heartbeat IPC: 3.98507 cumulative IPC: 3.99688 (Simulation time: 0 hr 23 min 55 sec) 
Heartbeat CPU 0 instructions: 360000000 cycles: 90077962 heartbeat IPC: 3.98448 cumulative IPC: 3.99654 (Simulation time: 0 hr 24 min 42 sec) 
Heartbeat CPU 0 instructions: 370000003 cycles: 92587738 heartbeat IPC: 3.98442 cumulative IPC: 3.99621 (Simulation time: 0 hr 25 min 20 sec) 
Heartbeat CPU 0 instructions: 380000003 cycles: 95097647 heartbeat IPC: 3.98421 cumulative IPC: 3.99589 (Simulation time: 0 hr 26 min 11 sec) 
Heartbeat CPU 0 instructions: 390000000 cycles: 97607695 heartbeat IPC: 3.98399 cumulative IPC: 3.99559 (Simulation time: 0 hr 26 min 55 sec) 
Heartbeat CPU 0 instructions: 400000003 cycles: 100118007 heartbeat IPC: 3.98357 cumulative IPC: 3.99529 (Simulation time: 0 hr 27 min 33 sec) 
Heartbeat CPU 0 instructions: 410000002 cycles: 102628261 heartbeat IPC: 3.98366 cumulative IPC: 3.995 (Simulation time: 0 hr 28 min 12 sec) 
Heartbeat CPU 0 instructions: 420000002 cycles: 105138657 heartbeat IPC: 3.98344 cumulative IPC: 3.99472 (Simulation time: 0 hr 28 min 52 sec) 
Heartbeat CPU 0 instructions: 430000003 cycles: 107649220 heartbeat IPC: 3.98317 cumulative IPC: 3.99446 (Simulation time: 0 hr 29 min 30 sec) 
Heartbeat CPU 0 instructions: 440000002 cycles: 110160060 heartbeat IPC: 3.98273 cumulative IPC: 3.99419 (Simulation time: 0 hr 30 min 6 sec) 
Heartbeat CPU 0 instructions: 450000001 cycles: 112670760 heartbeat IPC: 3.98295 cumulative IPC: 3.99394 (Simulation time: 0 hr 30 min 44 sec) 
Heartbeat CPU 0 instructions: 460000002 cycles: 115181125 heartbeat IPC: 3.98348 cumulative IPC: 3.99371 (Simulation time: 0 hr 31 min 20 sec) 
Heartbeat CPU 0 instructions: 470000003 cycles: 117690566 heartbeat IPC: 3.98495 cumulative IPC: 3.99352 (Simulation time: 0 hr 31 min 56 sec) 
Heartbeat CPU 0 instructions: 480000001 cycles: 120201588 heartbeat IPC: 3.98244 cumulative IPC: 3.99329 (Simulation time: 0 hr 32 min 37 sec) 
Heartbeat CPU 0 instructions: 490000002 cycles: 122712178 heartbeat IPC: 3.98313 cumulative IPC: 3.99308 (Simulation time: 0 hr 33 min 20 sec) 
Heartbeat CPU 0 instructions: 500000003 cycles: 125221989 heartbeat IPC: 3.98436 cumulative IPC: 3.99291 (Simulation time: 0 hr 33 min 58 sec) 

Warmup complete CPU 0 instructions: 500000003 cycles: 125221989 (Simulation time: 0 hr 33 min 58 sec) 

Heartbeat CPU 0 instructions: 510000001 cycles: 133902952 heartbeat IPC: 1.15195 cumulative IPC: 1.15195 (Simulation time: 0 hr 34 min 42 sec) 
Heartbeat CPU 0 instructions: 520000002 cycles: 142592012 heartbeat IPC: 1.15087 cumulative IPC: 1.15141 (Simulation time: 0 hr 35 min 36 sec) 
Heartbeat CPU 0 instructions: 530000000 cycles: 151284205 heartbeat IPC: 1.15046 cumulative IPC: 1.15109 (Simulation time: 0 hr 36 min 34 sec) 
Heartbeat CPU 0 instructions: 540000000 cycles: 159942991 heartbeat IPC: 1.1549 cumulative IPC: 1.15204 (Simulation time: 0 hr 37 min 33 sec) 
Heartbeat CPU 0 instructions: 550000000 cycles: 168562286 heartbeat IPC: 1.16019 cumulative IPC: 1.15366 (Simulation time: 0 hr 38 min 16 sec) 
Heartbeat CPU 0 instructions: 560000000 cycles: 177076141 heartbeat IPC: 1.17456 cumulative IPC: 1.15709 (Simulation time: 0 hr 39 min 7 sec) 
Heartbeat CPU 0 instructions: 570000003 cycles: 185397010 heartbeat IPC: 1.2018 cumulative IPC: 1.16327 (Simulation time: 0 hr 40 min 4 sec) 
Heartbeat CPU 0 instructions: 580000001 cycles: 193579763 heartbeat IPC: 1.22208 cumulative IPC: 1.17031 (Simulation time: 0 hr 40 min 51 sec) 
Heartbeat CPU 0 instructions: 590000002 cycles: 201798622 heartbeat IPC: 1.21671 cumulative IPC: 1.17529 (Simulation time: 0 hr 41 min 35 sec) 
Heartbeat CPU 0 instructions: 600000001 cycles: 210091490 heartbeat IPC: 1.20586 cumulative IPC: 1.17828 (Simulation time: 0 hr 42 min 18 sec) 
Heartbeat CPU 0 instructions: 610000000 cycles: 218392819 heartbeat IPC: 1.20463 cumulative IPC: 1.18063 (Simulation time: 0 hr 43 min 0 sec) 
Heartbeat CPU 0 instructions: 620000003 cycles: 226700146 heartbeat IPC: 1.20376 cumulative IPC: 1.18252 (Simulation time: 0 hr 43 min 46 sec) 
Heartbeat CPU 0 instructions: 630000001 cycles: 235034917 heartbeat IPC: 1.19979 cumulative IPC: 1.18383 (Simulation time: 0 hr 44 min 29 sec) 
Heartbeat CPU 0 instructions: 640000004 cycles: 243273604 heartbeat IPC: 1.21379 cumulative IPC: 1.18592 (Simulation time: 0 hr 45 min 20 sec) 
Heartbeat CPU 0 instructions: 650000004 cycles: 251433273 heartbeat IPC: 1.22554 cumulative IPC: 1.18848 (Simulation time: 0 hr 46 min 10 sec) 
Heartbeat CPU 0 instructions: 660000000 cycles: 259530701 heartbeat IPC: 1.23496 cumulative IPC: 1.19129 (Simulation time: 0 hr 46 min 56 sec) 
Heartbeat CPU 0 instructions: 670000004 cycles: 267593421 heartbeat IPC: 1.24028 cumulative IPC: 1.19406 (Simulation time: 0 hr 47 min 46 sec) 
Heartbeat CPU 0 instructions: 680000001 cycles: 275648349 heartbeat IPC: 1.24148 cumulative IPC: 1.1966 (Simulation time: 0 hr 48 min 28 sec) 
Heartbeat CPU 0 instructions: 690000002 cycles: 283851708 heartbeat IPC: 1.21901 cumulative IPC: 1.19776 (Simulation time: 0 hr 49 min 10 sec) 
Heartbeat CPU 0 instructions: 700000002 cycles: 292252298 heartbeat IPC: 1.19039 cumulative IPC: 1.19739 (Simulation time: 0 hr 49 min 53 sec) 
Heartbeat CPU 0 instructions: 710000000 cycles: 300732496 heartbeat IPC: 1.17922 cumulative IPC: 1.19651 (Simulation time: 0 hr 50 min 35 sec) 
Heartbeat CPU 0 instructions: 720000002 cycles: 309213536 heartbeat IPC: 1.1791 cumulative IPC: 1.19571 (Simulation time: 0 hr 51 min 18 sec) 
Heartbeat CPU 0 instructions: 730000004 cycles: 317571170 heartbeat IPC: 1.19651 cumulative IPC: 1.19574 (Simulation time: 0 hr 52 min 0 sec) 
Heartbeat CPU 0 instructions: 740000002 cycles: 325649486 heartbeat IPC: 1.23788 cumulative IPC: 1.19744 (Simulation time: 0 hr 52 min 43 sec) 
Heartbeat CPU 0 instructions: 750000000 cycles: 333958009 heartbeat IPC: 1.20358 cumulative IPC: 1.19769 (Simulation time: 0 hr 53 min 25 sec) 
Heartbeat CPU 0 instructions: 760000002 cycles: 342602731 heartbeat IPC: 1.15678 cumulative IPC: 1.19606 (Simulation time: 0 hr 54 min 8 sec) 
Heartbeat CPU 0 instructions: 770000003 cycles: 351193863 heartbeat IPC: 1.16399 cumulative IPC: 1.19484 (Simulation time: 0 hr 54 min 51 sec) 
Heartbeat CPU 0 instructions: 780000004 cycles: 359640969 heartbeat IPC: 1.18384 cumulative IPC: 1.19444 (Simulation time: 0 hr 55 min 34 sec) 
Heartbeat CPU 0 instructions: 790000003 cycles: 368018424 heartbeat IPC: 1.19368 cumulative IPC: 1.19442 (Simulation time: 0 hr 56 min 18 sec) 
Heartbeat CPU 0 instructions: 800000001 cycles: 376348857 heartbeat IPC: 1.20042 cumulative IPC: 1.19462 (Simulation time: 0 hr 57 min 0 sec) 
Heartbeat CPU 0 instructions: 810000000 cycles: 384679463 heartbeat IPC: 1.20039 cumulative IPC: 1.1948 (Simulation time: 0 hr 57 min 46 sec) 
Heartbeat CPU 0 instructions: 820000001 cycles: 392994843 heartbeat IPC: 1.20259 cumulative IPC: 1.19504 (Simulation time: 0 hr 58 min 30 sec) 
Heartbeat CPU 0 instructions: 830000001 cycles: 401311594 heartbeat IPC: 1.20239 cumulative IPC: 1.19526 (Simulation time: 0 hr 59 min 13 sec) 
Heartbeat CPU 0 instructions: 840000000 cycles: 409610868 heartbeat IPC: 1.20492 cumulative IPC: 1.19555 (Simulation time: 0 hr 59 min 56 sec) 
Heartbeat CPU 0 instructions: 850000004 cycles: 417905098 heartbeat IPC: 1.20566 cumulative IPC: 1.19583 (Simulation time: 1 hr 0 min 38 sec) 
Heartbeat CPU 0 instructions: 860000001 cycles: 426200456 heartbeat IPC: 1.20549 cumulative IPC: 1.1961 (Simulation time: 1 hr 1 min 19 sec) 
Heartbeat CPU 0 instructions: 870000003 cycles: 434483016 heartbeat IPC: 1.20736 cumulative IPC: 1.1964 (Simulation time: 1 hr 2 min 1 sec) 
Heartbeat CPU 0 instructions: 880000003 cycles: 442748891 heartbeat IPC: 1.20979 cumulative IPC: 1.19675 (Simulation time: 1 hr 2 min 43 sec) 
Heartbeat CPU 0 instructions: 890000001 cycles: 451007846 heartbeat IPC: 1.21081 cumulative IPC: 1.19711 (Simulation time: 1 hr 3 min 27 sec) 
Heartbeat CPU 0 instructions: 900000000 cycles: 459273966 heartbeat IPC: 1.20976 cumulative IPC: 1.19742 (Simulation time: 1 hr 4 min 28 sec) 
Heartbeat CPU 0 instructions: 910000004 cycles: 467513312 heartbeat IPC: 1.21369 cumulative IPC: 1.19781 (Simulation time: 1 hr 5 min 14 sec) 
Heartbeat CPU 0 instructions: 920000004 cycles: 475728908 heartbeat IPC: 1.2172 cumulative IPC: 1.19826 (Simulation time: 1 hr 5 min 58 sec) 
Heartbeat CPU 0 instructions: 930000004 cycles: 483785728 heartbeat IPC: 1.24118 cumulative IPC: 1.19923 (Simulation time: 1 hr 6 min 40 sec) 
Heartbeat CPU 0 instructions: 940000002 cycles: 491705107 heartbeat IPC: 1.26272 cumulative IPC: 1.2006 (Simulation time: 1 hr 7 min 22 sec) 
Heartbeat CPU 0 instructions: 950000001 cycles: 499470644 heartbeat IPC: 1.28774 cumulative IPC: 1.20241 (Simulation time: 1 hr 8 min 4 sec) 
Heartbeat CPU 0 instructions: 960000003 cycles: 507134176 heartbeat IPC: 1.30488 cumulative IPC: 1.20447 (Simulation time: 1 hr 8 min 46 sec) 
Heartbeat CPU 0 instructions: 970000000 cycles: 514796527 heartbeat IPC: 1.30508 cumulative IPC: 1.20644 (Simulation time: 1 hr 9 min 33 sec) 
Heartbeat CPU 0 instructions: 980000004 cycles: 522459507 heartbeat IPC: 1.30498 cumulative IPC: 1.20835 (Simulation time: 1 hr 10 min 21 sec) 
Heartbeat CPU 0 instructions: 990000000 cycles: 530111613 heartbeat IPC: 1.30683 cumulative IPC: 1.21021 (Simulation time: 1 hr 11 min 2 sec) 
Heartbeat CPU 0 instructions: 1000000000 cycles: 537767568 heartbeat IPC: 1.30617 cumulative IPC: 1.21199 (Simulation time: 1 hr 11 min 44 sec) 
Heartbeat CPU 0 instructions: 1010000004 cycles: 545428967 heartbeat IPC: 1.30525 cumulative IPC: 1.21369 (Simulation time: 1 hr 12 min 25 sec) 
Heartbeat CPU 0 instructions: 1020000000 cycles: 553074451 heartbeat IPC: 1.30796 cumulative IPC: 1.21537 (Simulation time: 1 hr 13 min 8 sec) 
Heartbeat CPU 0 instructions: 1030000000 cycles: 560720774 heartbeat IPC: 1.30782 cumulative IPC: 1.217 (Simulation time: 1 hr 13 min 50 sec) 
Heartbeat CPU 0 instructions: 1040000002 cycles: 568404801 heartbeat IPC: 1.3014 cumulative IPC: 1.21846 (Simulation time: 1 hr 14 min 34 sec) 
Heartbeat CPU 0 instructions: 1050000000 cycles: 576116730 heartbeat IPC: 1.29669 cumulative IPC: 1.2198 (Simulation time: 1 hr 15 min 45 sec) 
Heartbeat CPU 0 instructions: 1060000003 cycles: 583852333 heartbeat IPC: 1.29272 cumulative IPC: 1.22103 (Simulation time: 1 hr 16 min 32 sec) 
Heartbeat CPU 0 instructions: 1070000004 cycles: 591592480 heartbeat IPC: 1.29197 cumulative IPC: 1.2222 (Simulation time: 1 hr 17 min 13 sec) 
Heartbeat CPU 0 instructions: 1080000000 cycles: 599335899 heartbeat IPC: 1.29142 cumulative IPC: 1.22333 (Simulation time: 1 hr 17 min 55 sec) 
Heartbeat CPU 0 instructions: 1090000003 cycles: 607085759 heartbeat IPC: 1.29035 cumulative IPC: 1.22441 (Simulation time: 1 hr 18 min 37 sec) 
Heartbeat CPU 0 instructions: 1100000002 cycles: 614863577 heartbeat IPC: 1.28571 cumulative IPC: 1.22539 (Simulation time: 1 hr 19 min 19 sec) 
Heartbeat CPU 0 instructions: 1110000004 cycles: 622657114 heartbeat IPC: 1.28311 cumulative IPC: 1.22629 (Simulation time: 1 hr 20 min 1 sec) 
Heartbeat CPU 0 instructions: 1120000003 cycles: 630457270 heartbeat IPC: 1.28203 cumulative IPC: 1.22715 (Simulation time: 1 hr 20 min 43 sec) 
Heartbeat CPU 0 instructions: 1130000000 cycles: 638252043 heartbeat IPC: 1.28291 cumulative IPC: 1.228 (Simulation time: 1 hr 21 min 25 sec) 
Heartbeat CPU 0 instructions: 1140000001 cycles: 646033814 heartbeat IPC: 1.28505 cumulative IPC: 1.22885 (Simulation time: 1 hr 22 min 7 sec) 
Heartbeat CPU 0 instructions: 1150000002 cycles: 653895650 heartbeat IPC: 1.27197 cumulative IPC: 1.22949 (Simulation time: 1 hr 22 min 50 sec) 
Heartbeat CPU 0 instructions: 1160000001 cycles: 661802638 heartbeat IPC: 1.2647 cumulative IPC: 1.23001 (Simulation time: 1 hr 23 min 32 sec) 
Heartbeat CPU 0 instructions: 1170000004 cycles: 669723750 heartbeat IPC: 1.26245 cumulative IPC: 1.23048 (Simulation time: 1 hr 24 min 14 sec) 
Heartbeat CPU 0 instructions: 1180000003 cycles: 677670216 heartbeat IPC: 1.25842 cumulative IPC: 1.23088 (Simulation time: 1 hr 24 min 56 sec) 
Heartbeat CPU 0 instructions: 1190000000 cycles: 685650069 heartbeat IPC: 1.25316 cumulative IPC: 1.2312 (Simulation time: 1 hr 25 min 38 sec) 
Heartbeat CPU 0 instructions: 1200000000 cycles: 693631134 heartbeat IPC: 1.25297 cumulative IPC: 1.23151 (Simulation time: 1 hr 26 min 26 sec) 
Heartbeat CPU 0 instructions: 1210000001 cycles: 701396789 heartbeat IPC: 1.28772 cumulative IPC: 1.23226 (Simulation time: 1 hr 27 min 23 sec) 
Heartbeat CPU 0 instructions: 1220000003 cycles: 708185344 heartbeat IPC: 1.47307 cumulative IPC: 1.23507 (Simulation time: 1 hr 28 min 12 sec) 
Heartbeat CPU 0 instructions: 1230000002 cycles: 716075309 heartbeat IPC: 1.26743 cumulative IPC: 1.2355 (Simulation time: 1 hr 28 min 55 sec) 
Heartbeat CPU 0 instructions: 1240000001 cycles: 723991451 heartbeat IPC: 1.26324 cumulative IPC: 1.23587 (Simulation time: 1 hr 29 min 38 sec) 
Heartbeat CPU 0 instructions: 1250000000 cycles: 731894305 heartbeat IPC: 1.26537 cumulative IPC: 1.23625 (Simulation time: 1 hr 30 min 21 sec) 
Heartbeat CPU 0 instructions: 1260000000 cycles: 739774298 heartbeat IPC: 1.26904 cumulative IPC: 1.23667 (Simulation time: 1 hr 31 min 4 sec) 
Heartbeat CPU 0 instructions: 1270000000 cycles: 747646790 heartbeat IPC: 1.27025 cumulative IPC: 1.2371 (Simulation time: 1 hr 31 min 47 sec) 
Heartbeat CPU 0 instructions: 1280000002 cycles: 755483714 heartbeat IPC: 1.27601 cumulative IPC: 1.23758 (Simulation time: 1 hr 32 min 29 sec) 
Heartbeat CPU 0 instructions: 1290000003 cycles: 763333494 heartbeat IPC: 1.27392 cumulative IPC: 1.23803 (Simulation time: 1 hr 33 min 11 sec) 
Heartbeat CPU 0 instructions: 1300000003 cycles: 770953229 heartbeat IPC: 1.31238 cumulative IPC: 1.23891 (Simulation time: 1 hr 33 min 53 sec) 
Heartbeat CPU 0 instructions: 1310000002 cycles: 777709622 heartbeat IPC: 1.48008 cumulative IPC: 1.2414 (Simulation time: 1 hr 34 min 30 sec) 
Heartbeat CPU 0 instructions: 1320000003 cycles: 785598733 heartbeat IPC: 1.26757 cumulative IPC: 1.24172 (Simulation time: 1 hr 35 min 13 sec) 
Heartbeat CPU 0 instructions: 1330000000 cycles: 793517132 heartbeat IPC: 1.26288 cumulative IPC: 1.24197 (Simulation time: 1 hr 35 min 58 sec) 
Heartbeat CPU 0 instructions: 1340000003 cycles: 801451232 heartbeat IPC: 1.26038 cumulative IPC: 1.24218 (Simulation time: 1 hr 36 min 42 sec) 
Heartbeat CPU 0 instructions: 1350000000 cycles: 809397660 heartbeat IPC: 1.25843 cumulative IPC: 1.24237 (Simulation time: 1 hr 37 min 27 sec) 
Heartbeat CPU 0 instructions: 1360000001 cycles: 817364615 heartbeat IPC: 1.25518 cumulative IPC: 1.24252 (Simulation time: 1 hr 38 min 11 sec) 
Heartbeat CPU 0 instructions: 1370000004 cycles: 825395676 heartbeat IPC: 1.24517 cumulative IPC: 1.24255 (Simulation time: 1 hr 38 min 55 sec) 
Heartbeat CPU 0 instructions: 1380000002 cycles: 833567938 heartbeat IPC: 1.22365 cumulative IPC: 1.24233 (Simulation time: 1 hr 39 min 51 sec) 
Heartbeat CPU 0 instructions: 1390000000 cycles: 841830055 heartbeat IPC: 1.21034 cumulative IPC: 1.24196 (Simulation time: 1 hr 40 min 35 sec) 
Heartbeat CPU 0 instructions: 1400000000 cycles: 850124371 heartbeat IPC: 1.20564 cumulative IPC: 1.24155 (Simulation time: 1 hr 41 min 18 sec) 
Heartbeat CPU 0 instructions: 1410000001 cycles: 858472426 heartbeat IPC: 1.19788 cumulative IPC: 1.24105 (Simulation time: 1 hr 42 min 8 sec) 
Heartbeat CPU 0 instructions: 1420000002 cycles: 866844184 heartbeat IPC: 1.19449 cumulative IPC: 1.24052 (Simulation time: 1 hr 43 min 5 sec) 
Heartbeat CPU 0 instructions: 1430000000 cycles: 875214574 heartbeat IPC: 1.19469 cumulative IPC: 1.24001 (Simulation time: 1 hr 43 min 47 sec) 
Heartbeat CPU 0 instructions: 1440000001 cycles: 883580023 heartbeat IPC: 1.19539 cumulative IPC: 1.23952 (Simulation time: 1 hr 44 min 37 sec) 
Heartbeat CPU 0 instructions: 1450000004 cycles: 891933350 heartbeat IPC: 1.19713 cumulative IPC: 1.23906 (Simulation time: 1 hr 45 min 23 sec) 
Heartbeat CPU 0 instructions: 1460000002 cycles: 900267003 heartbeat IPC: 1.19995 cumulative IPC: 1.23864 (Simulation time: 1 hr 46 min 11 sec) 
Heartbeat CPU 0 instructions: 1470000002 cycles: 908593481 heartbeat IPC: 1.20099 cumulative IPC: 1.23824 (Simulation time: 1 hr 46 min 54 sec) 
Heartbeat CPU 0 instructions: 1480000002 cycles: 916935094 heartbeat IPC: 1.19881 cumulative IPC: 1.23782 (Simulation time: 1 hr 47 min 40 sec) 
Heartbeat CPU 0 instructions: 1490000003 cycles: 925297996 heartbeat IPC: 1.19576 cumulative IPC: 1.23738 (Simulation time: 1 hr 48 min 54 sec) 
Heartbeat CPU 0 instructions: 1500000001 cycles: 933696232 heartbeat IPC: 1.19073 cumulative IPC: 1.2369 (Simulation time: 1 hr 50 min 7 sec) 
Heartbeat CPU 0 instructions: 1510000003 cycles: 942122409 heartbeat IPC: 1.18678 cumulative IPC: 1.23638 (Simulation time: 1 hr 50 min 52 sec) 
Heartbeat CPU 0 instructions: 1520000004 cycles: 950589157 heartbeat IPC: 1.18109 cumulative IPC: 1.23581 (Simulation time: 1 hr 51 min 35 sec) 
Heartbeat CPU 0 instructions: 1530000004 cycles: 959124546 heartbeat IPC: 1.17159 cumulative IPC: 1.23516 (Simulation time: 1 hr 52 min 17 sec) 
Heartbeat CPU 0 instructions: 1540000002 cycles: 967674885 heartbeat IPC: 1.16954 cumulative IPC: 1.23449 (Simulation time: 1 hr 53 min 0 sec) 
Heartbeat CPU 0 instructions: 1550000002 cycles: 976285757 heartbeat IPC: 1.16132 cumulative IPC: 1.23375 (Simulation time: 1 hr 53 min 44 sec) 
Heartbeat CPU 0 instructions: 1560000002 cycles: 984931966 heartbeat IPC: 1.15658 cumulative IPC: 1.23297 (Simulation time: 1 hr 54 min 27 sec) 
Heartbeat CPU 0 instructions: 1570000002 cycles: 993642488 heartbeat IPC: 1.14804 cumulative IPC: 1.23212 (Simulation time: 1 hr 55 min 10 sec) 
Heartbeat CPU 0 instructions: 1580000000 cycles: 1002371759 heartbeat IPC: 1.14557 cumulative IPC: 1.23126 (Simulation time: 1 hr 55 min 55 sec) 
Heartbeat CPU 0 instructions: 1590000000 cycles: 1011057348 heartbeat IPC: 1.15133 cumulative IPC: 1.23048 (Simulation time: 1 hr 56 min 40 sec) 
Heartbeat CPU 0 instructions: 1600000000 cycles: 1019706673 heartbeat IPC: 1.15616 cumulative IPC: 1.22976 (Simulation time: 1 hr 57 min 23 sec) 
Heartbeat CPU 0 instructions: 1610000002 cycles: 1028306643 heartbeat IPC: 1.16279 cumulative IPC: 1.22912 (Simulation time: 1 hr 58 min 6 sec) 
Heartbeat CPU 0 instructions: 1620000003 cycles: 1036791172 heartbeat IPC: 1.17862 cumulative IPC: 1.22865 (Simulation time: 1 hr 58 min 48 sec) 
Heartbeat CPU 0 instructions: 1630000001 cycles: 1045086772 heartbeat IPC: 1.20546 cumulative IPC: 1.22844 (Simulation time: 1 hr 59 min 31 sec) 
Heartbeat CPU 0 instructions: 1640000000 cycles: 1053260429 heartbeat IPC: 1.22344 cumulative IPC: 1.2284 (Simulation time: 2 hr 0 min 12 sec) 
Heartbeat CPU 0 instructions: 1650000000 cycles: 1061497159 heartbeat IPC: 1.21407 cumulative IPC: 1.22827 (Simulation time: 2 hr 0 min 53 sec) 
Heartbeat CPU 0 instructions: 1660000001 cycles: 1069770080 heartbeat IPC: 1.20876 cumulative IPC: 1.2281 (Simulation time: 2 hr 1 min 34 sec) 
Heartbeat CPU 0 instructions: 1670000004 cycles: 1078027506 heartbeat IPC: 1.21103 cumulative IPC: 1.22795 (Simulation time: 2 hr 2 min 16 sec) 
Heartbeat CPU 0 instructions: 1680000003 cycles: 1086321508 heartbeat IPC: 1.20569 cumulative IPC: 1.22776 (Simulation time: 2 hr 2 min 58 sec) 
Heartbeat CPU 0 instructions: 1690000002 cycles: 1094605378 heartbeat IPC: 1.20717 cumulative IPC: 1.22758 (Simulation time: 2 hr 3 min 39 sec) 
Heartbeat CPU 0 instructions: 1700000002 cycles: 1102822735 heartbeat IPC: 1.21694 cumulative IPC: 1.22749 (Simulation time: 2 hr 4 min 20 sec) 
Heartbeat CPU 0 instructions: 1710000000 cycles: 1110973261 heartbeat IPC: 1.22691 cumulative IPC: 1.22749 (Simulation time: 2 hr 5 min 1 sec) 
Heartbeat CPU 0 instructions: 1720000000 cycles: 1119059826 heartbeat IPC: 1.23662 cumulative IPC: 1.22756 (Simulation time: 2 hr 5 min 42 sec) 
Heartbeat CPU 0 instructions: 1730000001 cycles: 1127119254 heartbeat IPC: 1.24078 cumulative IPC: 1.22767 (Simulation time: 2 hr 6 min 24 sec) 
Heartbeat CPU 0 instructions: 1740000000 cycles: 1135178988 heartbeat IPC: 1.24074 cumulative IPC: 1.22778 (Simulation time: 2 hr 7 min 6 sec) 
Heartbeat CPU 0 instructions: 1750000004 cycles: 1143381103 heartbeat IPC: 1.2192 cumulative IPC: 1.22771 (Simulation time: 2 hr 7 min 48 sec) 
Heartbeat CPU 0 instructions: 1760000000 cycles: 1151781963 heartbeat IPC: 1.19035 cumulative IPC: 1.2274 (Simulation time: 2 hr 8 min 30 sec) 
Heartbeat CPU 0 instructions: 1770000000 cycles: 1160257718 heartbeat IPC: 1.17984 cumulative IPC: 1.22701 (Simulation time: 2 hr 9 min 12 sec) 
Heartbeat CPU 0 instructions: 1780000001 cycles: 1168735771 heartbeat IPC: 1.17952 cumulative IPC: 1.22662 (Simulation time: 2 hr 9 min 54 sec) 
Heartbeat CPU 0 instructions: 1790000001 cycles: 1177136258 heartbeat IPC: 1.19041 cumulative IPC: 1.22634 (Simulation time: 2 hr 10 min 37 sec) 
Heartbeat CPU 0 instructions: 1800000001 cycles: 1185356417 heartbeat IPC: 1.21652 cumulative IPC: 1.22626 (Simulation time: 2 hr 11 min 19 sec) 
Heartbeat CPU 0 instructions: 1810000001 cycles: 1193458717 heartbeat IPC: 1.23422 cumulative IPC: 1.22632 (Simulation time: 2 hr 12 min 1 sec) 
Heartbeat CPU 0 instructions: 1820000000 cycles: 1202002091 heartbeat IPC: 1.1705 cumulative IPC: 1.22588 (Simulation time: 2 hr 12 min 44 sec) 
Heartbeat CPU 0 instructions: 1830000002 cycles: 1210627809 heartbeat IPC: 1.15932 cumulative IPC: 1.22535 (Simulation time: 2 hr 13 min 26 sec) 
Heartbeat CPU 0 instructions: 1840000002 cycles: 1219153518 heartbeat IPC: 1.17292 cumulative IPC: 1.22494 (Simulation time: 2 hr 14 min 7 sec) 
Heartbeat CPU 0 instructions: 1850000001 cycles: 1227578871 heartbeat IPC: 1.18689 cumulative IPC: 1.22465 (Simulation time: 2 hr 14 min 49 sec) 
Heartbeat CPU 0 instructions: 1860000004 cycles: 1235959566 heartbeat IPC: 1.19322 cumulative IPC: 1.22441 (Simulation time: 2 hr 15 min 30 sec) 
Heartbeat CPU 0 instructions: 1870000002 cycles: 1244341037 heartbeat IPC: 1.19311 cumulative IPC: 1.22418 (Simulation time: 2 hr 16 min 11 sec) 
Heartbeat CPU 0 instructions: 1880000000 cycles: 1252681644 heartbeat IPC: 1.19895 cumulative IPC: 1.22399 (Simulation time: 2 hr 16 min 52 sec) 
Heartbeat CPU 0 instructions: 1890000004 cycles: 1261019196 heartbeat IPC: 1.19939 cumulative IPC: 1.22381 (Simulation time: 2 hr 17 min 33 sec) 
Heartbeat CPU 0 instructions: 1900000002 cycles: 1269331372 heartbeat IPC: 1.20305 cumulative IPC: 1.22366 (Simulation time: 2 hr 18 min 13 sec) 
Heartbeat CPU 0 instructions: 1910000004 cycles: 1277627687 heartbeat IPC: 1.20535 cumulative IPC: 1.22353 (Simulation time: 2 hr 18 min 54 sec) 
Heartbeat CPU 0 instructions: 1920000000 cycles: 1285908191 heartbeat IPC: 1.20766 cumulative IPC: 1.22341 (Simulation time: 2 hr 19 min 35 sec) 
Heartbeat CPU 0 instructions: 1930000003 cycles: 1294193194 heartbeat IPC: 1.207 cumulative IPC: 1.2233 (Simulation time: 2 hr 20 min 16 sec) 
Heartbeat CPU 0 instructions: 1940000003 cycles: 1302480765 heartbeat IPC: 1.20663 cumulative IPC: 1.22318 (Simulation time: 2 hr 20 min 58 sec) 
Heartbeat CPU 0 instructions: 1950000004 cycles: 1310750416 heartbeat IPC: 1.20924 cumulative IPC: 1.22308 (Simulation time: 2 hr 21 min 39 sec) 
Heartbeat CPU 0 instructions: 1960000000 cycles: 1319012109 heartbeat IPC: 1.21041 cumulative IPC: 1.223 (Simulation time: 2 hr 22 min 21 sec) 
Heartbeat CPU 0 instructions: 1970000004 cycles: 1327259537 heartbeat IPC: 1.2125 cumulative IPC: 1.22292 (Simulation time: 2 hr 23 min 2 sec) 
Heartbeat CPU 0 instructions: 1980000001 cycles: 1335477681 heartbeat IPC: 1.21682 cumulative IPC: 1.22288 (Simulation time: 2 hr 23 min 43 sec) 
Heartbeat CPU 0 instructions: 1990000001 cycles: 1343610486 heartbeat IPC: 1.22959 cumulative IPC: 1.22293 (Simulation time: 2 hr 24 min 24 sec) 
*** Reached end of trace: traces/453.povray-887B.champsimtrace.xz
Heartbeat CPU 0 instructions: 2000000000 cycles: 1351561210 heartbeat IPC: 1.25775 cumulative IPC: 1.22315 (Simulation time: 2 hr 25 min 5 sec) 
Finished CPU 0 instructions: 1500000002 cycles: 1226339222 cumulative IPC: 1.22315 (Simulation time: 2 hr 25 min 5 sec) 

ChampSim completed all CPUs

Region of Interest Statistics

CPU 0 cumulative IPC: 1.22315 instructions: 1500000002 cycles: 1226339222
cpu0_DTLB TOTAL     ACCESS:  318046007  HIT:  313983135  MISS:    4062872
cpu0_DTLB LOAD      ACCESS:  213696755  HIT:  210034516  MISS:    3662239
cpu0_DTLB RFO       ACCESS:  104349252  HIT:  103948619  MISS:     400633
cpu0_DTLB PREFETCH  ACCESS:          0  HIT:          0  MISS:          0
cpu0_DTLB WRITEBACK ACCESS:          0  HIT:          0  MISS:          0
cpu0_DTLB TRANSLATION ACCESS:          0  HIT:          0  MISS:          0
cpu0_DTLB PREFETCH  REQUESTED:          0  ISSUED:          0  USEFUL:          0  USELESS:          0
cpu0_DTLB AVERAGE MISS LATENCY: 9.01518 cycles
cpu0_ITLB TOTAL     ACCESS:  118576960  HIT:  118294614  MISS:     282346
cpu0_ITLB LOAD      ACCESS:  118576960  HIT:  118294614  MISS:     282346
cpu0_ITLB RFO       ACCESS:          0  HIT:          0  MISS:          0
cpu0_ITLB PREFETCH  ACCESS:          0  HIT:          0  MISS:          0
cpu0_ITLB WRITEBACK ACCESS:          0  HIT:          0  MISS:          0
cpu0_ITLB TRANSLATION ACCESS:          0  HIT:          0  MISS:          0
cpu0_ITLB PREFETCH  REQUESTED:          0  ISSUED:          0  USEFUL:          0  USELESS:          0
cpu0_ITLB AVERAGE MISS LATENCY: 9 cycles
cpu0_L1I TOTAL     ACCESS:  119798337  HIT:  115363569  MISS:    4434768
cpu0_L1I LOAD      ACCESS:  119798337  HIT:  115363569  MISS:    4434768
cpu0_L1I RFO       ACCESS:          0  HIT:          0  MISS:          0
cpu0_L1I PREFETCH  ACCESS:          0  HIT:          0  MISS:          0
cpu0_L1I WRITEBACK ACCESS:          0  HIT:          0  MISS:          0
cpu0_L1I TRANSLATION ACCESS:          0  HIT:          0  MISS:          0
cpu0_L1I PREFETCH  REQUESTED:          0  ISSUED:          0  USEFUL:          0  USELESS:          0
cpu0_L1I AVERAGE MISS LATENCY: 11.041 cycles
cpu0_STLB TOTAL     ACCESS:    4345218  HIT:    4345198  MISS:         20
cpu0_STLB LOAD      ACCESS:    3944585  HIT:    3944568  MISS:         17
cpu0_STLB RFO       ACCESS:     400633  HIT:     400630  MISS:          3
cpu0_STLB PREFETCH  ACCESS:          0  HIT:          0  MISS:          0
cpu0_STLB WRITEBACK ACCESS:          0  HIT:          0  MISS:          0
cpu0_STLB TRANSLATION ACCESS:          0  HIT:          0  MISS:          0
cpu0_STLB PREFETCH  REQUESTED:          0  ISSUED:          0  USEFUL:          0  USELESS:          0
cpu0_STLB AVERAGE MISS LATENCY: 207.8 cycles
cpu0_L1D TOTAL     ACCESS:  447270355  HIT:  438936051  MISS:    8334304
cpu0_L1D LOAD      ACCESS:  234333129  HIT:  227551575  MISS:    6781554
cpu0_L1D RFO       ACCESS:  212937206  HIT:  211384469  MISS:    1552737
cpu0_L1D PREFETCH  ACCESS:          0  HIT:          0  MISS:          0
cpu0_L1D WRITEBACK ACCESS:          0  HIT:          0  MISS:          0
cpu0_L1D TRANSLATION ACCESS:         20  HIT:          7  MISS:         13
cpu0_L1D PREFETCH  REQUESTED:          0  ISSUED:          0  USEFUL:          0  USELESS:          0
cpu0_L1D AVERAGE MISS LATENCY: 11.0925 cycles
cpu0_L2C TOTAL     ACCESS:   14676132  HIT:   14671680  MISS:       4452
cpu0_L2C LOAD      ACCESS:   11216222  HIT:   11212342  MISS:       3880
cpu0_L2C RFO       ACCESS:    1552316  HIT:    1551751  MISS:        565
cpu0_L2C PREFETCH  ACCESS:          0  HIT:          0  MISS:          0
cpu0_L2C WRITEBACK ACCESS:    1907581  HIT:    1907574  MISS:          7
cpu0_L2C TRANSLATION ACCESS:         13  HIT:         13  MISS:          0
cpu0_L2C PREFETCH  REQUESTED:          0  ISSUED:          0  USEFUL:          0  USELESS:          0
cpu0_L2C AVERAGE MISS LATENCY: 66.0737 cycles
LLC TOTAL     ACCESS:       6111  HIT:       4483  MISS:       1628
LLC LOAD      ACCESS:       3880  HIT:       2335  MISS:       1545
LLC RFO       ACCESS:        565  HIT:        482  MISS:         83
LLC PREFETCH  ACCESS:          0  HIT:          0  MISS:          0
LLC WRITEBACK ACCESS:       1666  HIT:       1666  MISS:          0
LLC TRANSLATION ACCESS:          0  HIT:          0  MISS:          0
LLC PREFETCH  REQUESTED:          0  ISSUED:          0  USEFUL:          0  USELESS:          0
LLC AVERAGE MISS LATENCY: 123.351 cycles
~~~~~~~~~~Reuse Distance Profiler output~~~~~~~~~~
0	141006688	11404592
1	61395184	23002736
2	30153216	12788688
3	21812672	10837776
4	17996048	10489216
5	14235888	8992144
6	11632928	7818608
7	10293184	6550496
8	10745520	7326144
9	8658528	5984944
10	9265568	6412768
11	7420176	4979072
12	6448240	4343232
13	6780672	4751568
14	6279392	4703552
15	5825904	4404528
16	5606336	4117952
17	5002576	3698928
18	5049536	3791264
19	4794848	3433584
20	4899328	3697376
21	5499072	3739712
22	5734864	4110368
23	5796608	4370720
24	5044864	3955744
25	4964352	3795296
26	4651456	3715520
27	2580944	2136944
28	2129952	1797600
29	1913536	1436208
30	1717600	1198448
31	1454512	1086064
32	1618800	1308896
33	1391152	1059696
34	1120480	778992
35	1284640	921728
36	1466464	942576
37	1088928	798224
38	1098800	808064
39	1106688	861120
40	1123520	795312
41	1030944	749616
42	979552	720064
43	898496	595984
44	937008	616400
45	1050672	805152
46	958656	745040
47	929024	686224
48	858432	665344
49	836112	669904
50	832624	646064
51	832064	600224
52	896864	594816
53	960848	693808
54	1008528	797808
55	884160	678032
56	838176	559376
57	834544	547824
58	908096	598592
59	939600	644080
60	859840	598960
61	788928	546976
62	878048	539648
63	826352	557392
64	1655680	1168544
66	1735664	1234240
68	1756224	1288864
70	1452992	1058816
72	1128864	770160
74	1207136	869392
76	1155808	822880
78	1237104	921552
80	1415024	1078256
82	1330624	924688
84	1495456	1070720
86	1362528	952544
88	1189024	842128
90	1396848	1026512
92	1244352	856656
94	1249760	911184
96	1114288	830416
98	1244928	835296
100	1212768	786304
102	1195472	810640
104	1025920	689808
106	943872	659120
108	649408	433040
110	669568	467520
112	638512	472384
114	517360	366624
116	673936	506352
118	524896	358032
120	540416	420288
122	496656	377456
124	510272	402608
126	477120	370240
128	910096	647856
132	816912	539600
136	733776	524768
140	564928	410432
144	506912	375344
148	480544	355344
152	470880	336720
156	515888	370480
160	565312	396336
164	486656	384864
168	475056	398016
172	439632	362832
176	455168	347328
180	261840	179392
184	292896	192880
188	258176	173248
192	372032	270832
196	360720	271072
200	344368	297520
204	363904	308304
208	341872	272032
212	423600	343920
216	399824	303840
220	367680	254192
224	316496	225344
228	315520	226144
232	270128	200096
236	253056	166688
240	241568	164496
244	204736	158880
248	200400	162144
252	162304	138368
256	356432	278352
264	488256	418224
272	281408	232032
280	344768	243984
288	600112	433472
296	600000	363504
304	488400	371856
312	437232	348576
320	506208	411696
328	488640	347440
336	302336	205536
344	261456	217936
352	403360	319296
360	553152	492096
368	360800	305280
376	373728	279664
384	345280	220624
392	286992	185616
400	267584	199968
408	331168	278048
416	311616	264496
424	286256	258976
432	305936	234896
440	303216	243024
448	397264	291040
456	470032	303584
464	580096	426752
472	568848	380160
480	411888	288128
488	259536	168496
496	276064	212176
504	240544	177040
512	498816	371920
528	548848	343104
544	626832	476192
560	1060400	767024
576	1029984	775280
592	489200	426192
608	359776	291728
624	227536	162192
640	256960	172032
656	268448	180416
672	294048	190784
688	267600	164160
704	237536	169696
720	203872	166480
736	195488	129040
752	198032	176256
768	223824	189264
784	206672	160992
800	190112	160480
816	169312	135056
832	166560	130304
848	106752	82672
864	102224	85664
880	90656	67696
896	79904	59088
912	77280	64528
928	62576	52592
944	64464	57344
960	52864	42224
976	74752	54208
992	62800	50944
1008	78640	54032
1024	220208	173360
1056	167184	117120
1088	122144	90864
1120	63120	59760
1152	113504	80960
1184	97072	77472
1216	119168	77808
1248	106768	70960
1280	139584	74416
1312	112352	79024
1344	99808	68208
1376	80096	51456
1408	101248	75856
1440	117792	101376
1472	93728	84832
1504	109856	102624
1536	143600	120064
1568	128448	104224
1600	75664	59984
1632	59408	49104
1664	59760	49936
1696	66832	54912
1728	66064	54448
1760	87936	81216
1792	124288	117344
1824	110832	102864
1856	86576	79824
1888	81936	78560
1920	47872	43552
1952	66128	62336
1984	71408	57696
2016	68544	62464
2048	204304	198832
2112	181472	176496
2176	250272	245072
2240	169728	160672
2304	175824	167808
2368	192512	177232
2432	220928	198512
2496	210672	163200
2560	202864	174240
2624	164128	139968
2688	203040	160864
2752	378416	330848
2816	229120	204928
2880	219088	205504
2944	323680	305488
3008	351536	325392
3072	345536	316832
3136	280816	262688
3200	394688	387824
3264	209376	201728
3328	234320	228304
3392	254656	235472
3456	282208	271168
3520	350384	346336
3584	284560	281600
3648	354624	351088
3712	354720	351488
3776	445568	441712
3840	650192	643920
3904	528736	526128
3968	714528	703984
4032	652512	636208
4096	1394032	1327920
4224	1156112	1068416
4352	1309136	1251040
4480	956688	891104
4608	1120144	1061968
4736	1054128	1007968
4864	843232	802960
4992	1024704	976992
5120	1067840	999296
5248	1074720	1012304
5376	901296	841568
5504	710144	660000
5632	842224	795840
5760	664480	638496
5888	680464	644144
6016	904624	856192
6144	906992	871328
6272	900352	803088
6400	857728	755744
6528	859440	748368
6656	802320	680144
6784	1075168	972336
6912	808096	734176
7040	671248	614544
7168	630128	591280
7296	633264	580416
7424	616032	555936
7552	800416	723984
7680	815664	757248
7808	478304	427552
7936	700688	647952
8064	545312	498656
8192	803488	684944
8448	832896	769520
8704	650320	596288
8960	518800	423616
9216	504560	379152
9472	599680	498672
9728	562720	491008
9984	504992	446832
10240	422736	384688
10496	337424	289248
10752	376464	325968
11008	284480	228848
11264	282944	231536
11520	278640	214928
11776	469952	384256
12032	1091168	888928
12288	810768	653056
12544	671696	540432
12800	160560	118240
13056	94720	59728
13312	84320	46464
13568	66064	37472
13824	52720	26512
14080	64176	35616
14336	70624	41456
14592	44448	28048
14848	40784	20016
15104	32656	14960
15360	32384	15216
15616	35040	13520
15872	59856	41696
16128	61056	36816
16384	90240	50880
16896	134128	74144
17408	259152	168064
17920	377360	306112
18432	312320	224256
18944	452416	380944
19456	280384	242256
19968	98960	78528
20480	107344	89456
20992	128272	107440
21504	96544	61600
22016	200208	153872
22528	163920	113776
23040	107280	67504
23552	104048	60736
24064	99520	66576
24576	78688	41728
25088	62576	33056
25600	40784	14528
26112	38160	18224
26624	51792	35104
27136	87872	57872
27648	215680	164848
28160	225808	185488
28672	110384	84544
29184	126960	97936
29696	82400	62656
30208	46320	32416
30720	51552	38720
31232	52912	42224
31744	50560	40304
32256	31424	22992
32768	38336	24112
33792	38032	21040
34816	42096	21264
35840	74112	50736
36864	74624	54176
37888	61200	43200
38912	61696	41088
39936	59424	43376
40960	43696	30752
41984	33680	23792
43008	26624	19264
44032	22192	17728
45056	16960	13152
46080	12640	8896
47104	10528	7888
48128	17408	14864
49152	15712	13488
50176	18560	16704
51200	12096	9952
52224	9456	8192
53248	8368	6464
54272	9600	7904
55296	13264	11712
56320	17776	15776
57344	20576	17984
58368	14224	10080
59392	11056	8448
60416	13056	11264
61440	11632	9728
62464	10352	8864
63488	8176	6432
64512	9424	7216
65536	22192	17872
67584	23568	20784
69632	19744	17104
71680	19312	16704
73728	20688	18048
75776	16480	14448
77824	10624	8448
79872	11296	9408
81920	8464	6016
83968	18496	14688
86016	20048	15120
88064	15568	11504
90112	10128	5136
92160	14960	7136
94208	15872	8976
96256	14688	9760
98304	9920	5872
100352	5584	3920
102400	4384	3072
104448	4224	2816
106496	5952	4688
108544	4912	4208
110592	7792	6864
112640	12384	9552
114688	6576	5328
116736	5248	3888
118784	6736	4128
120832	5328	4496
122880	6672	4496
124928	4880	3776
126976	3520	2656
129024	3168	2592
131072	13728	11728
135168	8864	7568
139264	6768	5296
143360	7184	5728
147456	6992	5344
151552	6512	5200
155648	12608	10848
159744	9744	8016
163840	8256	6128
167936	8800	7104
172032	7104	5568
176128	5248	4416
180224	4352	3440
184320	4592	3136
188416	6320	5104
192512	6208	5088
196608	4752	3904
200704	5056	3920
204800	4512	3456
208896	4224	3424
212992	4256	3232
217088	4272	3216
221184	4336	3552
225280	4816	4416
229376	5424	4592
233472	4528	3872
237568	3408	2816
241664	3920	3296
245760	4000	3600
249856	2768	2336
253952	2288	2032
258048	2176	1872
262144	6192	5472
270336	5664	4912
278528	5408	4848
286720	7216	6016
294912	4496	3680
303104	4272	3328
311296	4288	3568
319488	4384	3376
327680	3312	2576
335872	3232	2608
344064	2608	2112
352256	3776	3424
360448	4336	4128
368640	2896	2704
376832	3008	2704
385024	3504	3040
393216	2816	2496
401408	3584	2816
409600	3184	2448
417792	2672	2400
425984	1904	1600
434176	2768	2528
442368	2128	1952
450560	2400	2144
458752	2128	1856
466944	2176	2048
475136	1776	1568
483328	2032	1952
491520	1424	1312
499712	1568	1248
507904	1664	1600
516096	1168	1008
524288	3744	3456
540672	4176	3824
557056	3376	3232
573440	2544	2384
589824	2896	2736
606208	3152	2800
622592	2992	2640
638976	2624	2368
655360	2848	2592
671744	2128	1984
688128	2336	2224
704512	2112	2000
720896	2464	2288
737280	1776	1728
753664	1536	1520
770048	1824	1792
786432	1616	1504
802816	1296	1296
819200	1680	1472
835584	2032	1888
851968	1792	1744
868352	1472	1408
884736	1344	1312
901120	1264	1264
917504	1664	1536
933888	1168	1136
950272	1120	1120
966656	1088	1072
983040	960	960
999424	1152	1088
1015808	1232	1200
1032192	1104	1088
1048576	2016	1968
1081344	2432	2400
1114112	1888	1840
1146880	2640	2560
1179648	2688	2464
1212416	1744	1728
1245184	1824	1776
1277952	1888	1888
1310720	1712	1648
1343488	2144	2000
1376256	2160	2016
1409024	1488	1456
1441792	1712	1600
1474560	1424	1376
1507328	1664	1552
1540096	1264	1184
1572864	1024	976
1605632	1216	1200
1638400	1328	1280
1671168	1152	1152
1703936	896	896
1736704	1216	1200
1769472	1184	1184
1802240	1088	1072
1835008	848	816
1867776	1040	1040
1900544	880	864
1933312	704	704
1966080	816	816
1998848	1040	976
2031616	848	848
2064384	816	816
2097152	1776	1744
2162688	1168	1168
2228224	1392	1392
2293760	1216	1216
2359296	1152	1136
2424832	1072	1072
2490368	1472	1472
2555904	1376	1376
2621440	1072	1072
2686976	1072	1072
2752512	832	816
2818048	1040	1008
2883584	816	752
2949120	992	992
3014656	832	832
3080192	640	640
3145728	752	752
3211264	560	560
3276800	544	544
3342336	544	544
3407872	656	656
3473408	592	592
3538944	672	656
3604480	688	656
3670016	544	544
3735552	560	560
3801088	496	464
3866624	448	448
3932160	416	400
3997696	336	336
4063232	336	320
4128768	448	400
4194304	832	832
4325376	592	592
4456448	624	624
4587520	672	656
4718592	576	576
4849664	720	704
4980736	560	560
5111808	560	544
5242880	368	368
5373952	496	496
5505024	496	496
5636096	464	464
5767168	448	432
5898240	336	336
6029312	432	432
6160384	288	288
6291456	256	256
6422528	288	288
6553600	320	320
6684672	384	384
6815744	144	144
6946816	256	256
7077888	224	224
7208960	272	272
7340032	224	224
7471104	176	176
7602176	224	224
7733248	128	128
7864320	112	112
7995392	96	96
8126464	176	176
8257536	96	96
8388608	208	208
8650752	224	224
8912896	176	176
9175040	208	208
9437184	256	240
9699328	240	240
9961472	80	80
10223616	224	224
10485760	240	240
10747904	112	112
11010048	208	192
11272192	144	144
11534336	144	144
11796480	112	112
12058624	80	80
12320768	144	144
12582912	192	192
12845056	176	176
13107200	160	160
13369344	144	144
13631488	64	64
13893632	128	128
14155776	112	112
14417920	80	80
14680064	64	64
14942208	32	32
15204352	80	80
15466496	48	48
15728640	112	112
15990784	48	48
16252928	0	0
16515072	128	128
16777216	208	128
17301504	160	144
17825792	208	208
18350080	112	112
18874368	160	160
19398656	96	96
19922944	64	64
20447232	144	128
20971520	80	80
21495808	96	96
22020096	112	112
22544384	192	192
23068672	48	32
23592960	128	128
24117248	96	96
24641536	96	96
25165824	128	112
25690112	112	112
26214400	192	64
26738688	160	160
27262976	48	32
27787264	80	80
28311552	64	64
28835840	16	16
29360128	64	64
29884416	224	192
30408704	80	80
30932992	80	80
31457280	80	80
31981568	80	80
32505856	80	80
33030144	64	64
33554432	112	112
34603008	32	32
35651584	80	80
36700160	208	208
37748736	192	128
38797312	80	80
39845888	208	208
40894464	176	144
41943040	48	32
42991616	336	272
44040192	144	128
45088768	240	240
46137344	64	64
47185920	224	112
48234496	144	112
49283072	112	96
50331648	112	112
51380224	176	176
52428800	128	128
53477376	144	80
54525952	176	144
55574528	272	176
56623104	160	160
57671680	160	160
58720256	256	192
59768832	112	96
60817408	32	32
61865984	224	224
62914560	160	160
63963136	128	128
65011712	128	128
66060288	96	96
67108864	240	240
69206016	160	160
71303168	160	160
73400320	128	112
75497472	64	64
77594624	64	64
79691776	112	112
81788928	64	64
83886080	80	80
85983232	80	80
88080384	48	32
90177536	48	16
92274688	16	16
94371840	80	80
96468992	32	16
98566144	32	0
100663296	32	16
102760448	144	80
104857600	16	16
106954752	16	16
109051904	64	64
111149056	128	112
113246208	32	32
115343360	64	48
117440512	32	16
119537664	48	48
121634816	0	0
123731968	64	64
125829120	48	48
127926272	32	16
130023424	16	16
132120576	16	16
134217728	16	16
138412032	0	0
142606336	32	16
146800640	0	0
150994944	32	16
155189248	32	0
159383552	80	48
163577856	96	16
167772160	128	64
171966464	80	64
176160768	0	0
180355072	16	0
184549376	32	16
188743680	16	16
192937984	160	144
197132288	0	0
201326592	32	32
205520896	0	0
209715200	32	32
213909504	64	64
218103808	96	80
222298112	32	32
226492416	16	16
230686720	32	16
234881024	16	16
239075328	64	32
243269632	144	112
247463936	48	32
251658240	32	32
255852544	16	0
260046848	0	0
264241152	0	0
268435456	48	0
276824064	32	0
285212672	32	0
293601280	0	0
301989888	96	96
310378496	1664	1376
318767104	16	16
327155712	32	32
335544320	32	32
343932928	32	32
352321536	48	48
360710144	0	0
369098752	0	0
377487360	0	0
385875968	0	0
394264576	0	0
402653184	0	0
411041792	0	0
419430400	0	0
427819008	0	0
436207616	0	0
444596224	0	0
452984832	0	0
461373440	0	0
469762048	0	0
478150656	0	0
486539264	0	0
494927872	0	0
503316480	0	0
511705088	0	0
520093696	0	0
528482304	0	0
536870912	0	0
553648128	0	0
570425344	0	0
587202560	0	0
603979776	0	0
620756992	0	0
637534208	0	0
654311424	0	0
671088640	0	0
687865856	0	0
704643072	0	0
721420288	0	0
738197504	0	0
754974720	0	0
771751936	0	0
788529152	0	0
805306368	0	0
822083584	0	0
838860800	0	0
855638016	0	0
872415232	0	0
889192448	0	0
905969664	0	0
922746880	0	0
939524096	0	0
956301312	0	0
973078528	0	0
989855744	0	0
1006632960	0	0
1023410176	0	0
1040187392	0	0
1056964608	0	0
1073741824	0	0
1107296256	0	0
1140850688	0	0
1174405120	0	0
1207959552	0	0
1241513984	0	0
1275068416	0	0
1308622848	0	0
1342177280	0	0
1375731712	0	0
1409286144	0	0
1442840576	0	0
1476395008	0	0
1509949440	0	0
1543503872	0	0
1577058304	0	0
1610612736	0	0
1644167168	0	0
1677721600	0	0
1711276032	0	0
1744830464	0	0
1778384896	0	0
1811939328	0	0
1845493760	0	0
1879048192	0	0
1912602624	0	0
1946157056	0	0
1979711488	0	0
2013265920	0	0
2046820352	0	0
2080374784	0	0
2113929216	0	0
2147483648	0	0
2214592512	0	0
2281701376	0	0
2348810240	0	0
2415919104	0	0
2483027968	0	0
2550136832	0	0
2617245696	0	0
2684354560	0	0
2751463424	0	0
2818572288	0	0
2885681152	0	0
2952790016	0	0
3019898880	0	0
3087007744	0	0
3154116608	0	0
3221225472	0	0
3288334336	0	0
3355443200	0	0
3422552064	0	0
3489660928	0	0
3556769792	0	0
3623878656	0	0
3690987520	0	0
3758096384	0	0
3825205248	0	0
3892314112	0	0
3959422976	0	0
4026531840	0	0
4093640704	0	0
4160749568	0	0
4227858432	0	0
~~~~~~~~~~Reuse Distance Profiler output end~~~~~~~~~~

DRAM Statistics
 CHANNEL 0
 RQ ROW_BUFFER_HIT:        705  ROW_BUFFER_MISS:        923
 DBUS AVG_CONGESTED_CYCLE:     3.8891
 WQ ROW_BUFFER_HIT:          0  ROW_BUFFER_MISS:          0  FULL:          0


CPU 0 Branch Prediction Accuracy: 92.6011% MPKI: 11.0706 Average ROB Occupancy at Mispredict: 49.9291
Branch type MPKI
BRANCH_DIRECT_JUMP: 9.33333e-06
BRANCH_INDIRECT: 0.016388
BRANCH_CONDITIONAL: 9.59159
BRANCH_DIRECT_CALL: 4e-06
BRANCH_INDIRECT_CALL: 0.637509
BRANCH_RETURN: 0.825143

