
*** ChampSim Multicore Out-of-Order Simulator ***

Warmup Instructions: 500000000
Simulation Instructions: 1500000000
Number of CPUs: 1
Off-chip DRAM Size: 4 GiB Channels: 1 Width: 64-bit Data Rate: 3200 MT/s

VirtualMemory physical capacity: 8588881920 num_ppages: 2096895
VirtualMemory page size: 4096 log2_page_size: 12

CPU 0 runs traces/453.povray-576B.champsimtrace.xz
CPU 0 Bimodal branch predictor
Basic BTB sets: 1024 ways: 8 indirect buffer size: 4096 RAS size: 64
Initializing LRU.
Initializing LRU.
Initializing LRU.
Initializing LRU.
Initializing rdLRU.
Initializing LRU.
Initializing LRU.
Heartbeat CPU 0 instructions: 10000002 cycles: 2507601 heartbeat IPC: 3.98788 cumulative IPC: 3.98788 (Simulation time: 0 hr 0 min 35 sec) 
Heartbeat CPU 0 instructions: 20000000 cycles: 5012850 heartbeat IPC: 3.99162 cumulative IPC: 3.98975 (Simulation time: 0 hr 1 min 7 sec) 
Heartbeat CPU 0 instructions: 30000000 cycles: 7523984 heartbeat IPC: 3.98226 cumulative IPC: 3.98725 (Simulation time: 0 hr 1 min 41 sec) 
Heartbeat CPU 0 instructions: 40000003 cycles: 10037796 heartbeat IPC: 3.97802 cumulative IPC: 3.98494 (Simulation time: 0 hr 2 min 15 sec) 
Heartbeat CPU 0 instructions: 50000003 cycles: 12551988 heartbeat IPC: 3.97742 cumulative IPC: 3.98343 (Simulation time: 0 hr 2 min 50 sec) 
Heartbeat CPU 0 instructions: 60000000 cycles: 15067298 heartbeat IPC: 3.97565 cumulative IPC: 3.98213 (Simulation time: 0 hr 3 min 25 sec) 
Heartbeat CPU 0 instructions: 70000000 cycles: 17578621 heartbeat IPC: 3.98196 cumulative IPC: 3.98211 (Simulation time: 0 hr 3 min 59 sec) 
Heartbeat CPU 0 instructions: 80000002 cycles: 20089653 heartbeat IPC: 3.98243 cumulative IPC: 3.98215 (Simulation time: 0 hr 4 min 34 sec) 
Heartbeat CPU 0 instructions: 90000002 cycles: 22604736 heartbeat IPC: 3.97601 cumulative IPC: 3.98147 (Simulation time: 0 hr 5 min 9 sec) 
Heartbeat CPU 0 instructions: 100000003 cycles: 25121156 heartbeat IPC: 3.9739 cumulative IPC: 3.98071 (Simulation time: 0 hr 5 min 44 sec) 
Heartbeat CPU 0 instructions: 110000002 cycles: 27638134 heartbeat IPC: 3.97302 cumulative IPC: 3.98001 (Simulation time: 0 hr 6 min 19 sec) 
Heartbeat CPU 0 instructions: 120000001 cycles: 30152717 heartbeat IPC: 3.9768 cumulative IPC: 3.97974 (Simulation time: 0 hr 6 min 54 sec) 
Heartbeat CPU 0 instructions: 130000000 cycles: 32663981 heartbeat IPC: 3.98206 cumulative IPC: 3.97992 (Simulation time: 0 hr 7 min 28 sec) 
Heartbeat CPU 0 instructions: 140000003 cycles: 35175760 heartbeat IPC: 3.98124 cumulative IPC: 3.98001 (Simulation time: 0 hr 8 min 3 sec) 
Heartbeat CPU 0 instructions: 150000001 cycles: 37687814 heartbeat IPC: 3.98081 cumulative IPC: 3.98007 (Simulation time: 0 hr 8 min 37 sec) 
Heartbeat CPU 0 instructions: 160000001 cycles: 40200119 heartbeat IPC: 3.98041 cumulative IPC: 3.98009 (Simulation time: 0 hr 9 min 12 sec) 
Heartbeat CPU 0 instructions: 170000002 cycles: 42711549 heartbeat IPC: 3.9818 cumulative IPC: 3.98019 (Simulation time: 0 hr 9 min 47 sec) 
Heartbeat CPU 0 instructions: 180000002 cycles: 45221447 heartbeat IPC: 3.98423 cumulative IPC: 3.98041 (Simulation time: 0 hr 10 min 24 sec) 
Heartbeat CPU 0 instructions: 190000001 cycles: 47729922 heartbeat IPC: 3.98649 cumulative IPC: 3.98073 (Simulation time: 0 hr 11 min 12 sec) 
Heartbeat CPU 0 instructions: 200000003 cycles: 50235268 heartbeat IPC: 3.99147 cumulative IPC: 3.98127 (Simulation time: 0 hr 11 min 48 sec) 
Heartbeat CPU 0 instructions: 210000000 cycles: 52739073 heartbeat IPC: 3.99392 cumulative IPC: 3.98187 (Simulation time: 0 hr 12 min 29 sec) 
Heartbeat CPU 0 instructions: 220000002 cycles: 55241391 heartbeat IPC: 3.9963 cumulative IPC: 3.98252 (Simulation time: 0 hr 13 min 4 sec) 
Heartbeat CPU 0 instructions: 230000001 cycles: 57744037 heartbeat IPC: 3.99577 cumulative IPC: 3.9831 (Simulation time: 0 hr 13 min 46 sec) 
Heartbeat CPU 0 instructions: 240000002 cycles: 60246020 heartbeat IPC: 3.99683 cumulative IPC: 3.98367 (Simulation time: 0 hr 14 min 24 sec) 
Heartbeat CPU 0 instructions: 250000001 cycles: 62748648 heartbeat IPC: 3.9958 cumulative IPC: 3.98415 (Simulation time: 0 hr 15 min 2 sec) 
Heartbeat CPU 0 instructions: 260000001 cycles: 65252008 heartbeat IPC: 3.99463 cumulative IPC: 3.98455 (Simulation time: 0 hr 15 min 40 sec) 
Heartbeat CPU 0 instructions: 270000003 cycles: 67755891 heartbeat IPC: 3.9938 cumulative IPC: 3.98489 (Simulation time: 0 hr 16 min 20 sec) 
Heartbeat CPU 0 instructions: 280000003 cycles: 70261138 heartbeat IPC: 3.99162 cumulative IPC: 3.98513 (Simulation time: 0 hr 17 min 6 sec) 
Heartbeat CPU 0 instructions: 290000003 cycles: 72767244 heartbeat IPC: 3.99025 cumulative IPC: 3.98531 (Simulation time: 0 hr 17 min 42 sec) 
Heartbeat CPU 0 instructions: 300000003 cycles: 75273529 heartbeat IPC: 3.98997 cumulative IPC: 3.98546 (Simulation time: 0 hr 18 min 17 sec) 
Heartbeat CPU 0 instructions: 310000002 cycles: 77779840 heartbeat IPC: 3.98993 cumulative IPC: 3.98561 (Simulation time: 0 hr 18 min 52 sec) 
Heartbeat CPU 0 instructions: 320000002 cycles: 80287435 heartbeat IPC: 3.98788 cumulative IPC: 3.98568 (Simulation time: 0 hr 19 min 27 sec) 
Heartbeat CPU 0 instructions: 330000000 cycles: 82794788 heartbeat IPC: 3.98827 cumulative IPC: 3.98576 (Simulation time: 0 hr 20 min 3 sec) 
Heartbeat CPU 0 instructions: 340000001 cycles: 85300297 heartbeat IPC: 3.99121 cumulative IPC: 3.98592 (Simulation time: 0 hr 20 min 39 sec) 
Heartbeat CPU 0 instructions: 350000002 cycles: 87803282 heartbeat IPC: 3.99523 cumulative IPC: 3.98618 (Simulation time: 0 hr 21 min 15 sec) 
Heartbeat CPU 0 instructions: 360000002 cycles: 90304234 heartbeat IPC: 3.99848 cumulative IPC: 3.98652 (Simulation time: 0 hr 21 min 51 sec) 
Heartbeat CPU 0 instructions: 370000003 cycles: 92805798 heartbeat IPC: 3.9975 cumulative IPC: 3.98682 (Simulation time: 0 hr 22 min 27 sec) 
Heartbeat CPU 0 instructions: 380000002 cycles: 95308354 heartbeat IPC: 3.99591 cumulative IPC: 3.98706 (Simulation time: 0 hr 23 min 3 sec) 
Heartbeat CPU 0 instructions: 390000003 cycles: 97812115 heartbeat IPC: 3.99399 cumulative IPC: 3.98724 (Simulation time: 0 hr 23 min 39 sec) 
Heartbeat CPU 0 instructions: 400000000 cycles: 100317719 heartbeat IPC: 3.99105 cumulative IPC: 3.98733 (Simulation time: 0 hr 24 min 14 sec) 
Heartbeat CPU 0 instructions: 410000000 cycles: 102828211 heartbeat IPC: 3.98328 cumulative IPC: 3.98723 (Simulation time: 0 hr 24 min 50 sec) 
Heartbeat CPU 0 instructions: 420000002 cycles: 105335633 heartbeat IPC: 3.98816 cumulative IPC: 3.98725 (Simulation time: 0 hr 25 min 26 sec) 
Heartbeat CPU 0 instructions: 430000003 cycles: 107842944 heartbeat IPC: 3.98834 cumulative IPC: 3.98728 (Simulation time: 0 hr 26 min 1 sec) 
Heartbeat CPU 0 instructions: 440000000 cycles: 110351967 heartbeat IPC: 3.98561 cumulative IPC: 3.98724 (Simulation time: 0 hr 26 min 36 sec) 
Heartbeat CPU 0 instructions: 450000001 cycles: 112856699 heartbeat IPC: 3.99244 cumulative IPC: 3.98736 (Simulation time: 0 hr 27 min 11 sec) 
Heartbeat CPU 0 instructions: 460000001 cycles: 115359547 heartbeat IPC: 3.99545 cumulative IPC: 3.98753 (Simulation time: 0 hr 27 min 46 sec) 
Heartbeat CPU 0 instructions: 470000003 cycles: 117861876 heartbeat IPC: 3.99628 cumulative IPC: 3.98772 (Simulation time: 0 hr 28 min 21 sec) 
Heartbeat CPU 0 instructions: 480000003 cycles: 120364985 heartbeat IPC: 3.99503 cumulative IPC: 3.98787 (Simulation time: 0 hr 28 min 57 sec) 
Heartbeat CPU 0 instructions: 490000002 cycles: 122869368 heartbeat IPC: 3.993 cumulative IPC: 3.98798 (Simulation time: 0 hr 29 min 33 sec) 
Heartbeat CPU 0 instructions: 500000001 cycles: 125374425 heartbeat IPC: 3.99192 cumulative IPC: 3.98805 (Simulation time: 0 hr 30 min 8 sec) 

Warmup complete CPU 0 instructions: 500000001 cycles: 125374425 (Simulation time: 0 hr 30 min 8 sec) 

Heartbeat CPU 0 instructions: 510000002 cycles: 133941156 heartbeat IPC: 1.16731 cumulative IPC: 1.16731 (Simulation time: 0 hr 30 min 50 sec) 
Heartbeat CPU 0 instructions: 520000000 cycles: 142417702 heartbeat IPC: 1.17973 cumulative IPC: 1.17348 (Simulation time: 0 hr 31 min 33 sec) 
Heartbeat CPU 0 instructions: 530000000 cycles: 150936334 heartbeat IPC: 1.1739 cumulative IPC: 1.17362 (Simulation time: 0 hr 32 min 15 sec) 
Heartbeat CPU 0 instructions: 540000001 cycles: 159518116 heartbeat IPC: 1.16526 cumulative IPC: 1.17152 (Simulation time: 0 hr 32 min 58 sec) 
Heartbeat CPU 0 instructions: 550000004 cycles: 168058594 heartbeat IPC: 1.17089 cumulative IPC: 1.17139 (Simulation time: 0 hr 33 min 39 sec) 
Heartbeat CPU 0 instructions: 560000002 cycles: 176648667 heartbeat IPC: 1.16413 cumulative IPC: 1.17018 (Simulation time: 0 hr 34 min 22 sec) 
Heartbeat CPU 0 instructions: 570000002 cycles: 185320479 heartbeat IPC: 1.15316 cumulative IPC: 1.16772 (Simulation time: 0 hr 35 min 4 sec) 
Heartbeat CPU 0 instructions: 580000003 cycles: 193942532 heartbeat IPC: 1.15982 cumulative IPC: 1.16672 (Simulation time: 0 hr 35 min 45 sec) 
Heartbeat CPU 0 instructions: 590000002 cycles: 202413995 heartbeat IPC: 1.18043 cumulative IPC: 1.16823 (Simulation time: 0 hr 36 min 27 sec) 
Heartbeat CPU 0 instructions: 600000001 cycles: 210472993 heartbeat IPC: 1.24085 cumulative IPC: 1.17511 (Simulation time: 0 hr 37 min 9 sec) 
Heartbeat CPU 0 instructions: 610000004 cycles: 218275540 heartbeat IPC: 1.28163 cumulative IPC: 1.18405 (Simulation time: 0 hr 37 min 52 sec) 
Heartbeat CPU 0 instructions: 620000004 cycles: 226024612 heartbeat IPC: 1.29048 cumulative IPC: 1.19225 (Simulation time: 0 hr 38 min 35 sec) 
Heartbeat CPU 0 instructions: 630000000 cycles: 233736499 heartbeat IPC: 1.2967 cumulative IPC: 1.19968 (Simulation time: 0 hr 39 min 17 sec) 
Heartbeat CPU 0 instructions: 640000003 cycles: 241458083 heartbeat IPC: 1.29507 cumulative IPC: 1.20603 (Simulation time: 0 hr 40 min 0 sec) 
Heartbeat CPU 0 instructions: 650000000 cycles: 249229779 heartbeat IPC: 1.28672 cumulative IPC: 1.21109 (Simulation time: 0 hr 40 min 43 sec) 
Heartbeat CPU 0 instructions: 660000003 cycles: 257088120 heartbeat IPC: 1.27253 cumulative IPC: 1.21476 (Simulation time: 0 hr 41 min 25 sec) 
Heartbeat CPU 0 instructions: 670000000 cycles: 264977736 heartbeat IPC: 1.26749 cumulative IPC: 1.21774 (Simulation time: 0 hr 42 min 8 sec) 
Heartbeat CPU 0 instructions: 680000004 cycles: 272832222 heartbeat IPC: 1.27316 cumulative IPC: 1.22069 (Simulation time: 0 hr 43 min 0 sec) 
Heartbeat CPU 0 instructions: 690000003 cycles: 280846360 heartbeat IPC: 1.24779 cumulative IPC: 1.22209 (Simulation time: 0 hr 43 min 52 sec) 
Heartbeat CPU 0 instructions: 700000002 cycles: 289443238 heartbeat IPC: 1.16321 cumulative IPC: 1.219 (Simulation time: 0 hr 44 min 50 sec) 
Heartbeat CPU 0 instructions: 710000004 cycles: 298240759 heartbeat IPC: 1.13668 cumulative IPC: 1.21481 (Simulation time: 0 hr 45 min 32 sec) 
Heartbeat CPU 0 instructions: 720000000 cycles: 306942713 heartbeat IPC: 1.14917 cumulative IPC: 1.21167 (Simulation time: 0 hr 46 min 14 sec) 
Heartbeat CPU 0 instructions: 730000000 cycles: 315463511 heartbeat IPC: 1.1736 cumulative IPC: 1.20996 (Simulation time: 0 hr 46 min 57 sec) 
Heartbeat CPU 0 instructions: 740000000 cycles: 323878827 heartbeat IPC: 1.18831 cumulative IPC: 1.20904 (Simulation time: 0 hr 47 min 39 sec) 
Heartbeat CPU 0 instructions: 750000004 cycles: 332011215 heartbeat IPC: 1.22965 cumulative IPC: 1.20985 (Simulation time: 0 hr 48 min 45 sec) 
Heartbeat CPU 0 instructions: 760000001 cycles: 339848866 heartbeat IPC: 1.27589 cumulative IPC: 1.21227 (Simulation time: 0 hr 49 min 26 sec) 
Heartbeat CPU 0 instructions: 770000003 cycles: 347528486 heartbeat IPC: 1.30215 cumulative IPC: 1.21537 (Simulation time: 0 hr 50 min 8 sec) 
Heartbeat CPU 0 instructions: 780000003 cycles: 355066753 heartbeat IPC: 1.32656 cumulative IPC: 1.21902 (Simulation time: 0 hr 50 min 49 sec) 
Heartbeat CPU 0 instructions: 790000004 cycles: 362590882 heartbeat IPC: 1.32906 cumulative IPC: 1.22251 (Simulation time: 0 hr 51 min 31 sec) 
Heartbeat CPU 0 instructions: 800000000 cycles: 370149096 heartbeat IPC: 1.32306 cumulative IPC: 1.22562 (Simulation time: 0 hr 52 min 12 sec) 
Heartbeat CPU 0 instructions: 810000003 cycles: 377753280 heartbeat IPC: 1.31507 cumulative IPC: 1.22831 (Simulation time: 0 hr 52 min 53 sec) 
Heartbeat CPU 0 instructions: 820000001 cycles: 385367091 heartbeat IPC: 1.3134 cumulative IPC: 1.2308 (Simulation time: 0 hr 53 min 34 sec) 
Heartbeat CPU 0 instructions: 830000004 cycles: 392932011 heartbeat IPC: 1.32189 cumulative IPC: 1.23338 (Simulation time: 0 hr 54 min 15 sec) 
Heartbeat CPU 0 instructions: 840000001 cycles: 400364944 heartbeat IPC: 1.34536 cumulative IPC: 1.23641 (Simulation time: 0 hr 54 min 56 sec) 
Heartbeat CPU 0 instructions: 850000000 cycles: 407735847 heartbeat IPC: 1.35669 cumulative IPC: 1.23955 (Simulation time: 0 hr 55 min 45 sec) 
Heartbeat CPU 0 instructions: 860000000 cycles: 415148890 heartbeat IPC: 1.34897 cumulative IPC: 1.24235 (Simulation time: 0 hr 56 min 28 sec) 
Heartbeat CPU 0 instructions: 870000001 cycles: 423053907 heartbeat IPC: 1.26502 cumulative IPC: 1.24295 (Simulation time: 0 hr 57 min 11 sec) 
Heartbeat CPU 0 instructions: 880000003 cycles: 431649787 heartbeat IPC: 1.16335 cumulative IPC: 1.24071 (Simulation time: 0 hr 58 min 7 sec) 
Heartbeat CPU 0 instructions: 890000003 cycles: 439868704 heartbeat IPC: 1.21671 cumulative IPC: 1.24009 (Simulation time: 0 hr 59 min 4 sec) 
Heartbeat CPU 0 instructions: 900000003 cycles: 448172530 heartbeat IPC: 1.20426 cumulative IPC: 1.23916 (Simulation time: 1 hr 0 min 16 sec) 
Heartbeat CPU 0 instructions: 910000002 cycles: 456434736 heartbeat IPC: 1.21033 cumulative IPC: 1.23845 (Simulation time: 1 hr 1 min 26 sec) 
Heartbeat CPU 0 instructions: 920000001 cycles: 464643420 heartbeat IPC: 1.21822 cumulative IPC: 1.23796 (Simulation time: 1 hr 2 min 28 sec) 
Heartbeat CPU 0 instructions: 930000001 cycles: 473009335 heartbeat IPC: 1.19533 cumulative IPC: 1.23693 (Simulation time: 1 hr 3 min 10 sec) 
Heartbeat CPU 0 instructions: 940000000 cycles: 481549480 heartbeat IPC: 1.17094 cumulative IPC: 1.23535 (Simulation time: 1 hr 3 min 51 sec) 
Heartbeat CPU 0 instructions: 950000000 cycles: 490073467 heartbeat IPC: 1.17316 cumulative IPC: 1.23389 (Simulation time: 1 hr 4 min 33 sec) 
Heartbeat CPU 0 instructions: 960000000 cycles: 498556883 heartbeat IPC: 1.17877 cumulative IPC: 1.23264 (Simulation time: 1 hr 5 min 14 sec) 
Heartbeat CPU 0 instructions: 970000003 cycles: 506955960 heartbeat IPC: 1.19061 cumulative IPC: 1.23172 (Simulation time: 1 hr 5 min 54 sec) 
Heartbeat CPU 0 instructions: 980000001 cycles: 515303310 heartbeat IPC: 1.19798 cumulative IPC: 1.23099 (Simulation time: 1 hr 6 min 35 sec) 
Heartbeat CPU 0 instructions: 990000003 cycles: 523577947 heartbeat IPC: 1.20851 cumulative IPC: 1.23053 (Simulation time: 1 hr 7 min 15 sec) 
Heartbeat CPU 0 instructions: 1000000004 cycles: 531817328 heartbeat IPC: 1.21368 cumulative IPC: 1.23019 (Simulation time: 1 hr 7 min 57 sec) 
Heartbeat CPU 0 instructions: 1010000001 cycles: 539656449 heartbeat IPC: 1.27565 cumulative IPC: 1.23105 (Simulation time: 1 hr 8 min 38 sec) 
Heartbeat CPU 0 instructions: 1020000000 cycles: 547274431 heartbeat IPC: 1.31268 cumulative IPC: 1.23252 (Simulation time: 1 hr 9 min 19 sec) 
Heartbeat CPU 0 instructions: 1030000002 cycles: 554829239 heartbeat IPC: 1.32366 cumulative IPC: 1.23412 (Simulation time: 1 hr 10 min 0 sec) 
Heartbeat CPU 0 instructions: 1040000001 cycles: 562421656 heartbeat IPC: 1.3171 cumulative IPC: 1.23556 (Simulation time: 1 hr 10 min 48 sec) 
Heartbeat CPU 0 instructions: 1050000001 cycles: 570732989 heartbeat IPC: 1.20318 cumulative IPC: 1.23496 (Simulation time: 1 hr 11 min 56 sec) 
Heartbeat CPU 0 instructions: 1060000003 cycles: 579083687 heartbeat IPC: 1.1975 cumulative IPC: 1.23427 (Simulation time: 1 hr 12 min 57 sec) 
Heartbeat CPU 0 instructions: 1070000000 cycles: 587603256 heartbeat IPC: 1.17377 cumulative IPC: 1.23316 (Simulation time: 1 hr 13 min 47 sec) 
Heartbeat CPU 0 instructions: 1080000002 cycles: 595940320 heartbeat IPC: 1.19946 cumulative IPC: 1.23256 (Simulation time: 1 hr 14 min 29 sec) 
Heartbeat CPU 0 instructions: 1090000003 cycles: 603755335 heartbeat IPC: 1.27959 cumulative IPC: 1.23333 (Simulation time: 1 hr 15 min 11 sec) 
Heartbeat CPU 0 instructions: 1100000002 cycles: 612167150 heartbeat IPC: 1.1888 cumulative IPC: 1.23256 (Simulation time: 1 hr 15 min 52 sec) 
Heartbeat CPU 0 instructions: 1110000003 cycles: 620466940 heartbeat IPC: 1.20485 cumulative IPC: 1.23209 (Simulation time: 1 hr 16 min 35 sec) 
Heartbeat CPU 0 instructions: 1120000003 cycles: 628640277 heartbeat IPC: 1.22349 cumulative IPC: 1.23195 (Simulation time: 1 hr 17 min 17 sec) 
Heartbeat CPU 0 instructions: 1130000004 cycles: 635301899 heartbeat IPC: 1.50114 cumulative IPC: 1.23547 (Simulation time: 1 hr 18 min 0 sec) 
Heartbeat CPU 0 instructions: 1140000001 cycles: 643542024 heartbeat IPC: 1.21357 cumulative IPC: 1.23512 (Simulation time: 1 hr 18 min 41 sec) 
Heartbeat CPU 0 instructions: 1150000000 cycles: 651941424 heartbeat IPC: 1.19056 cumulative IPC: 1.23441 (Simulation time: 1 hr 19 min 23 sec) 
Heartbeat CPU 0 instructions: 1160000000 cycles: 660451164 heartbeat IPC: 1.17512 cumulative IPC: 1.23347 (Simulation time: 1 hr 20 min 4 sec) 
Heartbeat CPU 0 instructions: 1170000001 cycles: 669048033 heartbeat IPC: 1.16321 cumulative IPC: 1.23236 (Simulation time: 1 hr 20 min 46 sec) 
Heartbeat CPU 0 instructions: 1180000000 cycles: 677806244 heartbeat IPC: 1.14179 cumulative IPC: 1.23092 (Simulation time: 1 hr 21 min 54 sec) 
Heartbeat CPU 0 instructions: 1190000003 cycles: 686650655 heartbeat IPC: 1.13066 cumulative IPC: 1.22934 (Simulation time: 1 hr 22 min 40 sec) 
Heartbeat CPU 0 instructions: 1200000000 cycles: 695370942 heartbeat IPC: 1.14675 cumulative IPC: 1.22808 (Simulation time: 1 hr 23 min 21 sec) 
Heartbeat CPU 0 instructions: 1210000000 cycles: 704129598 heartbeat IPC: 1.14173 cumulative IPC: 1.22677 (Simulation time: 1 hr 24 min 3 sec) 
Heartbeat CPU 0 instructions: 1220000003 cycles: 712957184 heartbeat IPC: 1.13281 cumulative IPC: 1.22536 (Simulation time: 1 hr 24 min 44 sec) 
Heartbeat CPU 0 instructions: 1230000000 cycles: 721664418 heartbeat IPC: 1.14847 cumulative IPC: 1.22424 (Simulation time: 1 hr 25 min 24 sec) 
Heartbeat CPU 0 instructions: 1240000000 cycles: 730278151 heartbeat IPC: 1.16094 cumulative IPC: 1.22334 (Simulation time: 1 hr 26 min 6 sec) 
Heartbeat CPU 0 instructions: 1250000004 cycles: 738586158 heartbeat IPC: 1.20366 cumulative IPC: 1.22307 (Simulation time: 1 hr 26 min 50 sec) 
Heartbeat CPU 0 instructions: 1260000000 cycles: 746742961 heartbeat IPC: 1.22597 cumulative IPC: 1.22311 (Simulation time: 1 hr 27 min 33 sec) 
Heartbeat CPU 0 instructions: 1270000004 cycles: 754978766 heartbeat IPC: 1.21421 cumulative IPC: 1.22299 (Simulation time: 1 hr 28 min 31 sec) 
Heartbeat CPU 0 instructions: 1280000000 cycles: 763267391 heartbeat IPC: 1.20647 cumulative IPC: 1.22278 (Simulation time: 1 hr 29 min 12 sec) 
Heartbeat CPU 0 instructions: 1290000000 cycles: 771531245 heartbeat IPC: 1.21009 cumulative IPC: 1.22261 (Simulation time: 1 hr 29 min 53 sec) 
Heartbeat CPU 0 instructions: 1300000004 cycles: 779770854 heartbeat IPC: 1.21365 cumulative IPC: 1.2225 (Simulation time: 1 hr 30 min 33 sec) 
Heartbeat CPU 0 instructions: 1310000004 cycles: 788060254 heartbeat IPC: 1.20636 cumulative IPC: 1.2223 (Simulation time: 1 hr 31 min 13 sec) 
Heartbeat CPU 0 instructions: 1320000003 cycles: 796393531 heartbeat IPC: 1.20001 cumulative IPC: 1.22202 (Simulation time: 1 hr 31 min 54 sec) 
Heartbeat CPU 0 instructions: 1330000000 cycles: 804649320 heartbeat IPC: 1.21127 cumulative IPC: 1.22189 (Simulation time: 1 hr 32 min 35 sec) 
Heartbeat CPU 0 instructions: 1340000002 cycles: 813120171 heartbeat IPC: 1.18052 cumulative IPC: 1.22138 (Simulation time: 1 hr 33 min 17 sec) 
Heartbeat CPU 0 instructions: 1350000001 cycles: 821233910 heartbeat IPC: 1.23248 cumulative IPC: 1.22151 (Simulation time: 1 hr 33 min 58 sec) 
Heartbeat CPU 0 instructions: 1360000000 cycles: 829501557 heartbeat IPC: 1.20953 cumulative IPC: 1.22137 (Simulation time: 1 hr 34 min 39 sec) 
Heartbeat CPU 0 instructions: 1370000001 cycles: 837723700 heartbeat IPC: 1.21623 cumulative IPC: 1.22131 (Simulation time: 1 hr 35 min 20 sec) 
Heartbeat CPU 0 instructions: 1380000001 cycles: 845881174 heartbeat IPC: 1.22587 cumulative IPC: 1.22136 (Simulation time: 1 hr 36 min 2 sec) 
Heartbeat CPU 0 instructions: 1390000004 cycles: 854143506 heartbeat IPC: 1.21031 cumulative IPC: 1.22124 (Simulation time: 1 hr 36 min 43 sec) 
Heartbeat CPU 0 instructions: 1400000003 cycles: 862436530 heartbeat IPC: 1.20583 cumulative IPC: 1.22106 (Simulation time: 1 hr 37 min 23 sec) 
Heartbeat CPU 0 instructions: 1410000002 cycles: 870694467 heartbeat IPC: 1.21096 cumulative IPC: 1.22095 (Simulation time: 1 hr 38 min 3 sec) 
Heartbeat CPU 0 instructions: 1420000000 cycles: 878911487 heartbeat IPC: 1.21699 cumulative IPC: 1.22091 (Simulation time: 1 hr 38 min 44 sec) 
Heartbeat CPU 0 instructions: 1430000001 cycles: 887182992 heartbeat IPC: 1.20897 cumulative IPC: 1.22078 (Simulation time: 1 hr 39 min 24 sec) 
Heartbeat CPU 0 instructions: 1440000001 cycles: 895451714 heartbeat IPC: 1.20938 cumulative IPC: 1.22066 (Simulation time: 1 hr 40 min 4 sec) 
Heartbeat CPU 0 instructions: 1450000004 cycles: 903731665 heartbeat IPC: 1.20774 cumulative IPC: 1.22052 (Simulation time: 1 hr 40 min 45 sec) 
Heartbeat CPU 0 instructions: 1460000002 cycles: 912041421 heartbeat IPC: 1.2034 cumulative IPC: 1.22034 (Simulation time: 1 hr 41 min 25 sec) 
Heartbeat CPU 0 instructions: 1470000000 cycles: 920497131 heartbeat IPC: 1.18263 cumulative IPC: 1.21994 (Simulation time: 1 hr 42 min 6 sec) 
Heartbeat CPU 0 instructions: 1480000000 cycles: 929021184 heartbeat IPC: 1.17315 cumulative IPC: 1.21944 (Simulation time: 1 hr 42 min 47 sec) 
Heartbeat CPU 0 instructions: 1490000001 cycles: 937588948 heartbeat IPC: 1.16717 cumulative IPC: 1.21889 (Simulation time: 1 hr 43 min 27 sec) 
Heartbeat CPU 0 instructions: 1500000001 cycles: 946197631 heartbeat IPC: 1.16162 cumulative IPC: 1.21829 (Simulation time: 1 hr 44 min 7 sec) 
Heartbeat CPU 0 instructions: 1510000004 cycles: 954901774 heartbeat IPC: 1.14888 cumulative IPC: 1.21756 (Simulation time: 1 hr 44 min 48 sec) 
Heartbeat CPU 0 instructions: 1520000003 cycles: 963559858 heartbeat IPC: 1.15499 cumulative IPC: 1.21691 (Simulation time: 1 hr 45 min 28 sec) 
Heartbeat CPU 0 instructions: 1530000002 cycles: 971935500 heartbeat IPC: 1.19394 cumulative IPC: 1.21669 (Simulation time: 1 hr 46 min 24 sec) 
Heartbeat CPU 0 instructions: 1540000002 cycles: 980735185 heartbeat IPC: 1.1364 cumulative IPC: 1.21586 (Simulation time: 1 hr 47 min 27 sec) 
Heartbeat CPU 0 instructions: 1550000003 cycles: 989283616 heartbeat IPC: 1.16981 cumulative IPC: 1.21541 (Simulation time: 1 hr 48 min 17 sec) 
Heartbeat CPU 0 instructions: 1560000001 cycles: 997686237 heartbeat IPC: 1.1901 cumulative IPC: 1.21516 (Simulation time: 1 hr 48 min 57 sec) 
Heartbeat CPU 0 instructions: 1570000000 cycles: 1006204347 heartbeat IPC: 1.17397 cumulative IPC: 1.21476 (Simulation time: 1 hr 49 min 38 sec) 
Heartbeat CPU 0 instructions: 1580000001 cycles: 1014857552 heartbeat IPC: 1.15564 cumulative IPC: 1.21419 (Simulation time: 1 hr 50 min 26 sec) 
Heartbeat CPU 0 instructions: 1590000000 cycles: 1023549668 heartbeat IPC: 1.15047 cumulative IPC: 1.21357 (Simulation time: 1 hr 51 min 29 sec) 
Heartbeat CPU 0 instructions: 1600000000 cycles: 1032217745 heartbeat IPC: 1.15366 cumulative IPC: 1.213 (Simulation time: 1 hr 52 min 31 sec) 
Heartbeat CPU 0 instructions: 1610000000 cycles: 1040797467 heartbeat IPC: 1.16554 cumulative IPC: 1.21255 (Simulation time: 1 hr 53 min 18 sec) 
Heartbeat CPU 0 instructions: 1620000004 cycles: 1049260724 heartbeat IPC: 1.18158 cumulative IPC: 1.21227 (Simulation time: 1 hr 54 min 0 sec) 
Heartbeat CPU 0 instructions: 1630000001 cycles: 1057775013 heartbeat IPC: 1.1745 cumulative IPC: 1.21193 (Simulation time: 1 hr 54 min 42 sec) 
Heartbeat CPU 0 instructions: 1640000003 cycles: 1066362252 heartbeat IPC: 1.16452 cumulative IPC: 1.21149 (Simulation time: 1 hr 55 min 25 sec) 
Heartbeat CPU 0 instructions: 1650000002 cycles: 1074905544 heartbeat IPC: 1.17051 cumulative IPC: 1.21112 (Simulation time: 1 hr 56 min 14 sec) 
Heartbeat CPU 0 instructions: 1660000004 cycles: 1083511550 heartbeat IPC: 1.16198 cumulative IPC: 1.21068 (Simulation time: 1 hr 56 min 57 sec) 
Heartbeat CPU 0 instructions: 1670000002 cycles: 1092142047 heartbeat IPC: 1.15868 cumulative IPC: 1.21022 (Simulation time: 1 hr 57 min 39 sec) 
Heartbeat CPU 0 instructions: 1680000000 cycles: 1100721948 heartbeat IPC: 1.16551 cumulative IPC: 1.20983 (Simulation time: 1 hr 58 min 22 sec) 
Heartbeat CPU 0 instructions: 1690000001 cycles: 1109291279 heartbeat IPC: 1.16695 cumulative IPC: 1.20945 (Simulation time: 1 hr 59 min 4 sec) 
Heartbeat CPU 0 instructions: 1700000002 cycles: 1117523696 heartbeat IPC: 1.21471 cumulative IPC: 1.2095 (Simulation time: 1 hr 59 min 48 sec) 
Heartbeat CPU 0 instructions: 1710000001 cycles: 1125441435 heartbeat IPC: 1.26299 cumulative IPC: 1.20992 (Simulation time: 2 hr 0 min 32 sec) 
Heartbeat CPU 0 instructions: 1720000001 cycles: 1133230390 heartbeat IPC: 1.28387 cumulative IPC: 1.21049 (Simulation time: 2 hr 1 min 15 sec) 
Heartbeat CPU 0 instructions: 1730000004 cycles: 1140954983 heartbeat IPC: 1.29457 cumulative IPC: 1.21113 (Simulation time: 2 hr 1 min 58 sec) 
Heartbeat CPU 0 instructions: 1740000003 cycles: 1148664305 heartbeat IPC: 1.29713 cumulative IPC: 1.21178 (Simulation time: 2 hr 2 min 42 sec) 
Heartbeat CPU 0 instructions: 1750000000 cycles: 1156399344 heartbeat IPC: 1.29282 cumulative IPC: 1.21239 (Simulation time: 2 hr 3 min 25 sec) 
Heartbeat CPU 0 instructions: 1760000002 cycles: 1164203879 heartbeat IPC: 1.28131 cumulative IPC: 1.2129 (Simulation time: 2 hr 4 min 7 sec) 
Heartbeat CPU 0 instructions: 1770000001 cycles: 1172082139 heartbeat IPC: 1.26932 cumulative IPC: 1.21333 (Simulation time: 2 hr 4 min 50 sec) 
Heartbeat CPU 0 instructions: 1780000003 cycles: 1179966055 heartbeat IPC: 1.26841 cumulative IPC: 1.21374 (Simulation time: 2 hr 5 min 31 sec) 
Heartbeat CPU 0 instructions: 1790000002 cycles: 1187810584 heartbeat IPC: 1.27477 cumulative IPC: 1.21419 (Simulation time: 2 hr 6 min 13 sec) 
Heartbeat CPU 0 instructions: 1800000001 cycles: 1196101377 heartbeat IPC: 1.20616 cumulative IPC: 1.21413 (Simulation time: 2 hr 6 min 55 sec) 
Heartbeat CPU 0 instructions: 1810000000 cycles: 1204784467 heartbeat IPC: 1.15166 cumulative IPC: 1.21363 (Simulation time: 2 hr 7 min 38 sec) 
Heartbeat CPU 0 instructions: 1820000001 cycles: 1213579693 heartbeat IPC: 1.13698 cumulative IPC: 1.21301 (Simulation time: 2 hr 8 min 20 sec) 
Heartbeat CPU 0 instructions: 1830000001 cycles: 1222200663 heartbeat IPC: 1.15996 cumulative IPC: 1.21259 (Simulation time: 2 hr 9 min 3 sec) 
Heartbeat CPU 0 instructions: 1840000001 cycles: 1230669408 heartbeat IPC: 1.18081 cumulative IPC: 1.21235 (Simulation time: 2 hr 9 min 45 sec) 
Heartbeat CPU 0 instructions: 1850000003 cycles: 1238925064 heartbeat IPC: 1.21129 cumulative IPC: 1.21234 (Simulation time: 2 hr 10 min 28 sec) 
Heartbeat CPU 0 instructions: 1860000002 cycles: 1246891732 heartbeat IPC: 1.25523 cumulative IPC: 1.21264 (Simulation time: 2 hr 11 min 11 sec) 
Heartbeat CPU 0 instructions: 1870000002 cycles: 1254651863 heartbeat IPC: 1.28864 cumulative IPC: 1.21317 (Simulation time: 2 hr 11 min 53 sec) 
Heartbeat CPU 0 instructions: 1880000002 cycles: 1262266415 heartbeat IPC: 1.31327 cumulative IPC: 1.21384 (Simulation time: 2 hr 12 min 36 sec) 
Heartbeat CPU 0 instructions: 1890000001 cycles: 1269807234 heartbeat IPC: 1.32612 cumulative IPC: 1.21458 (Simulation time: 2 hr 13 min 19 sec) 
Heartbeat CPU 0 instructions: 1900000002 cycles: 1277318716 heartbeat IPC: 1.3313 cumulative IPC: 1.21534 (Simulation time: 2 hr 14 min 1 sec) 
Heartbeat CPU 0 instructions: 1910000000 cycles: 1284910186 heartbeat IPC: 1.31727 cumulative IPC: 1.216 (Simulation time: 2 hr 14 min 44 sec) 
Heartbeat CPU 0 instructions: 1920000004 cycles: 1292493631 heartbeat IPC: 1.31866 cumulative IPC: 1.21667 (Simulation time: 2 hr 15 min 26 sec) 
Heartbeat CPU 0 instructions: 1930000002 cycles: 1300090012 heartbeat IPC: 1.31642 cumulative IPC: 1.21732 (Simulation time: 2 hr 16 min 8 sec) 
Heartbeat CPU 0 instructions: 1940000001 cycles: 1307589499 heartbeat IPC: 1.33342 cumulative IPC: 1.21805 (Simulation time: 2 hr 16 min 50 sec) 
Heartbeat CPU 0 instructions: 1950000001 cycles: 1314984408 heartbeat IPC: 1.35228 cumulative IPC: 1.21889 (Simulation time: 2 hr 17 min 32 sec) 
Heartbeat CPU 0 instructions: 1960000004 cycles: 1322345223 heartbeat IPC: 1.35855 cumulative IPC: 1.21975 (Simulation time: 2 hr 18 min 14 sec) 
Heartbeat CPU 0 instructions: 1970000001 cycles: 1329834168 heartbeat IPC: 1.3353 cumulative IPC: 1.22046 (Simulation time: 2 hr 18 min 56 sec) 
Heartbeat CPU 0 instructions: 1980000000 cycles: 1338021300 heartbeat IPC: 1.22143 cumulative IPC: 1.22047 (Simulation time: 2 hr 19 min 37 sec) 
Heartbeat CPU 0 instructions: 1990000001 cycles: 1346461106 heartbeat IPC: 1.18486 cumulative IPC: 1.22022 (Simulation time: 2 hr 20 min 19 sec) 
*** Reached end of trace: traces/453.povray-576B.champsimtrace.xz
Heartbeat CPU 0 instructions: 2000000004 cycles: 1354582571 heartbeat IPC: 1.23131 cumulative IPC: 1.2203 (Simulation time: 2 hr 21 min 0 sec) 
Finished CPU 0 instructions: 1500000003 cycles: 1229208146 cumulative IPC: 1.2203 (Simulation time: 2 hr 21 min 0 sec) 

ChampSim completed all CPUs

Region of Interest Statistics

CPU 0 cumulative IPC: 1.2203 instructions: 1500000003 cycles: 1229208146
cpu0_DTLB TOTAL     ACCESS:  320185322  HIT:  316587370  MISS:    3597952
cpu0_DTLB LOAD      ACCESS:  219831061  HIT:  216591116  MISS:    3239945
cpu0_DTLB RFO       ACCESS:  100354261  HIT:   99996254  MISS:     358007
cpu0_DTLB PREFETCH  ACCESS:          0  HIT:          0  MISS:          0
cpu0_DTLB WRITEBACK ACCESS:          0  HIT:          0  MISS:          0
cpu0_DTLB TRANSLATION ACCESS:          0  HIT:          0  MISS:          0
cpu0_DTLB PREFETCH  REQUESTED:          0  ISSUED:          0  USEFUL:          0  USELESS:          0
cpu0_DTLB AVERAGE MISS LATENCY: 9.01277 cycles
cpu0_ITLB TOTAL     ACCESS:  145459241  HIT:  145265917  MISS:     193324
cpu0_ITLB LOAD      ACCESS:  145459241  HIT:  145265917  MISS:     193324
cpu0_ITLB RFO       ACCESS:          0  HIT:          0  MISS:          0
cpu0_ITLB PREFETCH  ACCESS:          0  HIT:          0  MISS:          0
cpu0_ITLB WRITEBACK ACCESS:          0  HIT:          0  MISS:          0
cpu0_ITLB TRANSLATION ACCESS:          0  HIT:          0  MISS:          0
cpu0_ITLB PREFETCH  REQUESTED:          0  ISSUED:          0  USEFUL:          0  USELESS:          0
cpu0_ITLB AVERAGE MISS LATENCY: 9.00332 cycles
cpu0_L1I TOTAL     ACCESS:   64486083  HIT:   60662499  MISS:    3823584
cpu0_L1I LOAD      ACCESS:   64486083  HIT:   60662499  MISS:    3823584
cpu0_L1I RFO       ACCESS:          0  HIT:          0  MISS:          0
cpu0_L1I PREFETCH  ACCESS:          0  HIT:          0  MISS:          0
cpu0_L1I WRITEBACK ACCESS:          0  HIT:          0  MISS:          0
cpu0_L1I TRANSLATION ACCESS:          0  HIT:          0  MISS:          0
cpu0_L1I PREFETCH  REQUESTED:          0  ISSUED:          0  USEFUL:          0  USELESS:          0
cpu0_L1I AVERAGE MISS LATENCY: 11.0646 cycles
cpu0_STLB TOTAL     ACCESS:    3791276  HIT:    3791253  MISS:         23
cpu0_STLB LOAD      ACCESS:    3433269  HIT:    3433246  MISS:         23
cpu0_STLB RFO       ACCESS:     358007  HIT:     358007  MISS:          0
cpu0_STLB PREFETCH  ACCESS:          0  HIT:          0  MISS:          0
cpu0_STLB WRITEBACK ACCESS:          0  HIT:          0  MISS:          0
cpu0_STLB TRANSLATION ACCESS:          0  HIT:          0  MISS:          0
cpu0_STLB PREFETCH  REQUESTED:          0  ISSUED:          0  USEFUL:          0  USELESS:          0
cpu0_STLB AVERAGE MISS LATENCY: 213.739 cycles
cpu0_L1D TOTAL     ACCESS:  439966579  HIT:  431288264  MISS:    8678315
cpu0_L1D LOAD      ACCESS:  232759207  HIT:  225437298  MISS:    7321909
cpu0_L1D RFO       ACCESS:  207207349  HIT:  205850955  MISS:    1356394
cpu0_L1D PREFETCH  ACCESS:          0  HIT:          0  MISS:          0
cpu0_L1D WRITEBACK ACCESS:          0  HIT:          0  MISS:          0
cpu0_L1D TRANSLATION ACCESS:         23  HIT:         11  MISS:         12
cpu0_L1D PREFETCH  REQUESTED:          0  ISSUED:          0  USEFUL:          0  USELESS:          0
cpu0_L1D AVERAGE MISS LATENCY: 11.094 cycles
cpu0_L2C TOTAL     ACCESS:   14226633  HIT:   14216073  MISS:      10560
cpu0_L2C LOAD      ACCESS:   11145272  HIT:   11135776  MISS:       9496
cpu0_L2C RFO       ACCESS:    1355629  HIT:    1354614  MISS:       1015
cpu0_L2C PREFETCH  ACCESS:          0  HIT:          0  MISS:          0
cpu0_L2C WRITEBACK ACCESS:    1725720  HIT:    1725671  MISS:         49
cpu0_L2C TRANSLATION ACCESS:         12  HIT:         12  MISS:          0
cpu0_L2C PREFETCH  REQUESTED:          0  ISSUED:          0  USEFUL:          0  USELESS:          0
cpu0_L2C AVERAGE MISS LATENCY: 39.4353 cycles
LLC TOTAL     ACCESS:      12599  HIT:      10974  MISS:       1625
LLC LOAD      ACCESS:       9496  HIT:       7896  MISS:       1600
LLC RFO       ACCESS:       1015  HIT:        990  MISS:         25
LLC PREFETCH  ACCESS:          0  HIT:          0  MISS:          0
LLC WRITEBACK ACCESS:       2088  HIT:       2088  MISS:          0
LLC TRANSLATION ACCESS:          0  HIT:          0  MISS:          0
LLC PREFETCH  REQUESTED:          0  ISSUED:          0  USEFUL:          0  USELESS:          0
LLC AVERAGE MISS LATENCY: 120.434 cycles
~~~~~~~~~~Reuse Distance Profiler output~~~~~~~~~~
0	134891984	11685664
1	57422304	20650336
2	29251792	12010208
3	21386560	11636544
4	17468272	9986064
5	14528640	9126896
6	11950704	8318864
7	10872032	7377840
8	10679520	7165392
9	9779200	6892928
10	9829168	6471808
11	7513232	5020016
12	6674448	4322256
13	6780368	4891904
14	6336352	4448816
15	5670256	3925424
16	5772352	3929072
17	5429280	3994064
18	5681104	4094880
19	4831808	3503792
20	4656512	3512672
21	5101616	3742976
22	5558096	4020896
23	5500416	4064720
24	5220640	3909888
25	5496256	3971344
26	4638832	3447200
27	3170304	2226112
28	2438352	1882960
29	1993376	1513584
30	1633408	1274976
31	1448192	1107120
32	1554480	1205280
33	1666976	1344112
34	1485584	1165472
35	1366704	1032832
36	1460752	1111056
37	1328064	951040
38	1415424	975456
39	1061104	784992
40	1103712	718432
41	1078272	770672
42	1129136	871648
43	996912	744064
44	1017792	824016
45	859232	617344
46	940512	734688
47	973456	802544
48	881376	700336
49	948256	761792
50	866000	643600
51	984208	666832
52	965024	648656
53	1037408	782240
54	924464	666416
55	830816	571088
56	876704	563456
57	940192	607392
58	913536	582560
59	956240	574960
60	924640	594720
61	982432	617088
62	860224	564448
63	937936	599232
64	2039488	1447040
66	1735232	1222144
68	1429264	988112
70	1295088	930784
72	1147024	815296
74	1113360	771280
76	1148624	802720
78	1345968	934624
80	1382352	934208
82	1421456	979552
84	1293312	929056
86	1395952	976864
88	1281792	915616
90	1346032	960512
92	1409216	978160
94	1331024	953920
96	1184768	839296
98	1499248	971424
100	1153792	710736
102	1139968	745504
104	896464	603968
106	799280	570288
108	767984	577360
110	695056	486800
112	720320	490736
114	594144	388256
116	555424	378928
118	463536	360144
120	504096	399568
122	482400	371216
124	472496	364448
126	445632	321200
128	861008	622544
132	883472	623024
136	735712	545232
140	557408	386496
144	571744	408496
148	578288	417504
152	494800	355936
156	529776	374096
160	542880	444192
164	544960	435952
168	582624	458320
172	413488	320512
176	396000	290016
180	345920	228336
184	339600	245856
188	370896	258416
192	398128	279712
196	382480	312640
200	402496	326000
204	390464	325952
208	390544	325360
212	372032	300976
216	310112	243936
220	365408	264896
224	386496	278064
228	358864	277696
232	263696	204960
236	246160	192976
240	251008	201120
244	251264	199504
248	254048	198080
252	235216	191584
256	564192	444560
264	403312	318928
272	417264	303328
280	421888	305136
288	578576	418848
296	605072	422064
304	532256	397616
312	521376	404944
320	495936	388816
328	428064	293264
336	383200	232736
344	398576	301552
352	463120	385344
360	455360	386064
368	463568	375216
376	329696	267648
384	263568	206848
392	275760	215760
400	247504	201552
408	287104	244656
416	253984	213840
424	300784	253200
432	319584	276976
440	267952	202960
448	364336	272160
456	484272	363264
464	481328	368464
472	589776	387600
480	421264	259472
488	280352	190352
496	274144	188368
504	325680	239840
512	628336	454688
528	652336	398080
544	660752	511648
560	977392	772400
576	877024	770128
592	441936	392112
608	269808	213376
624	256944	174976
640	219360	165504
656	226176	163584
672	240752	161168
688	220752	157456
704	179792	131808
720	190448	139472
736	258720	174352
752	222176	174080
768	168784	143456
784	139360	100560
800	156464	124320
816	166848	140672
832	127840	97232
848	110384	85136
864	96384	73184
880	111200	75552
896	100512	68752
912	98608	77152
928	87200	73232
944	83424	70816
960	64304	53168
976	57120	48304
992	68112	52176
1008	78720	59904
1024	169984	149136
1056	175904	137360
1088	135232	118112
1120	125472	101856
1152	86704	76960
1184	90944	73360
1216	88368	75072
1248	124608	105136
1280	139776	105648
1312	146256	103392
1344	152208	111520
1376	116656	80544
1408	94976	67904
1440	74576	56256
1472	80544	66832
1504	114304	99680
1536	106208	84960
1568	84544	70288
1600	78896	61824
1632	82128	71776
1664	78832	66592
1696	90720	63488
1728	102128	65984
1760	107520	90688
1792	118208	104416
1824	166992	153728
1856	55680	45680
1888	56880	46016
1920	86288	74528
1952	91056	77584
1984	116976	104496
2016	91680	76336
2048	352576	334496
2112	151552	115248
2176	162320	134976
2240	184400	148768
2304	173184	150832
2368	139376	121952
2432	139008	121360
2496	146800	132704
2560	142576	114528
2624	130608	113360
2688	160336	139008
2752	226896	209872
2816	186992	175952
2880	188384	145072
2944	276640	245872
3008	220816	204480
3072	285920	273792
3136	313104	298816
3200	416080	403088
3264	202608	190608
3328	181376	168000
3392	189648	172704
3456	241552	226448
3520	195296	186496
3584	192032	183168
3648	213840	207024
3712	279072	269648
3776	267056	256992
3840	278224	266544
3904	316864	304544
3968	301920	292656
4032	286000	268528
4096	978448	898384
4224	999184	949536
4352	739568	716128
4480	634928	592560
4608	740240	704208
4736	792496	736544
4864	722464	676944
4992	742560	704704
5120	771584	729408
5248	901168	863632
5376	851728	810128
5504	757072	715520
5632	672464	631168
5760	600048	558800
5888	640848	608544
6016	523120	490528
6144	540512	507872
6272	596064	556768
6400	686512	656784
6528	791408	754736
6656	787504	744032
6784	866784	821408
6912	891136	858912
7040	784192	746736
7168	649632	615520
7296	622080	570816
7424	649776	583920
7552	680704	608112
7680	758512	675440
7808	812352	745056
7936	689968	633664
8064	637072	585856
8192	1043008	948064
8448	1169520	1066496
8704	991040	902240
8960	858000	771568
9216	759392	686944
9472	719728	666144
9728	639504	593296
9984	565152	524736
10240	412864	374976
10496	370352	330336
10752	439312	405552
11008	416144	377872
11264	420368	378112
11520	320624	279136
11776	281488	240848
12032	253872	224016
12288	176192	150944
12544	149760	119344
12800	168864	132384
13056	173696	140704
13312	172384	139952
13568	172016	128752
13824	170128	127440
14080	153088	113248
14336	144432	102080
14592	105536	63232
14848	102800	52864
15104	91904	48432
15360	78176	43312
15616	78112	44320
15872	78096	50336
16128	62496	35216
16384	126608	60624
16896	152304	80656
17408	192512	128240
17920	317568	249120
18432	352016	253440
18944	513728	412496
19456	724656	616704
19968	714528	612832
20480	479648	409184
20992	299280	249392
21504	223024	178208
22016	167312	113280
22528	115552	75504
23040	60224	37760
23552	53200	31856
24064	64144	36592
24576	81856	47664
25088	130368	95824
25600	89040	58112
26112	100544	68656
26624	114176	79840
27136	139136	105760
27648	80432	56912
28160	86400	64880
28672	65344	46896
29184	75568	55392
29696	98000	74272
30208	103216	79024
30720	92432	73344
31232	71968	55792
31744	60592	45584
32256	54432	42528
32768	80096	56944
33792	82000	61296
34816	49088	33232
35840	57456	39200
36864	55408	37344
37888	55536	37680
38912	64160	45904
39936	68576	50848
40960	56448	42448
41984	45440	33120
43008	44352	30768
44032	47216	33328
45056	27712	18592
46080	26608	17488
47104	23664	16640
48128	27296	19184
49152	40112	30640
50176	30624	23984
51200	25968	19312
52224	20288	15008
53248	20560	15728
54272	23312	18528
55296	26528	22528
56320	21216	17536
57344	23328	19664
58368	26560	22544
59392	20224	16448
60416	22288	19152
61440	15568	13584
62464	12944	10768
63488	12560	10704
64512	10688	8368
65536	20560	16160
67584	18080	14528
69632	16464	13136
71680	14176	11312
73728	15680	11776
75776	13440	10096
77824	17792	14560
79872	19792	15376
81920	16272	13056
83968	16064	12496
86016	15520	12096
88064	12880	9696
90112	13536	10544
92160	10112	7888
94208	9712	7152
96256	11808	9648
98304	11472	9312
100352	11360	9568
102400	9376	7440
104448	8704	6816
106496	7712	6192
108544	8912	7632
110592	8048	6720
112640	9056	7440
114688	7808	6432
116736	8480	7344
118784	6800	5488
120832	7536	6224
122880	7920	6160
124928	6032	4912
126976	7200	5824
129024	6176	4688
131072	10944	8304
135168	15376	12880
139264	16496	13824
143360	13360	10832
147456	10912	8528
151552	10528	7920
155648	10896	8672
159744	8576	6896
163840	7600	6144
167936	7296	5760
172032	7024	5504
176128	7264	5760
180224	7088	5760
184320	7168	5920
188416	6576	5456
192512	6304	5264
196608	5248	4224
200704	4288	3504
204800	5664	4768
208896	4576	3664
212992	5296	4560
217088	4464	3664
221184	4208	3536
225280	3888	3168
229376	3120	2448
233472	3328	2592
237568	3488	2816
241664	3168	2640
245760	2992	2288
249856	2848	2240
253952	2992	2432
258048	2720	2128
262144	6736	5104
270336	6624	4976
278528	6160	4896
286720	5952	4944
294912	5552	4384
303104	4832	4128
311296	4832	3968
319488	4992	4016
327680	5328	4720
335872	5392	4352
344064	4896	3888
352256	4960	4160
360448	3808	3136
368640	3680	3120
376832	4368	3568
385024	4544	3232
393216	4224	3344
401408	3424	2928
409600	3232	2976
417792	2816	2352
425984	2720	2528
434176	2736	2240
442368	3168	2432
450560	2640	1968
458752	1888	1664
466944	2208	1872
475136	2224	1968
483328	2000	1712
491520	2256	1728
499712	1856	1408
507904	1664	1392
516096	2128	1840
524288	3392	2944
540672	3552	3088
557056	3760	3008
573440	3152	2752
589824	3088	2592
606208	2784	2416
622592	2832	2352
638976	2384	1936
655360	2192	1664
671744	2016	1664
688128	2064	1872
704512	1792	1712
720896	2048	1792
737280	1872	1696
753664	1840	1616
770048	1792	1328
786432	2048	1824
802816	1408	1296
819200	1344	1232
835584	1632	1360
851968	1392	1280
868352	1248	1104
884736	1776	1552
901120	1424	1328
917504	1216	1040
933888	1232	1120
950272	1088	960
966656	1440	1296
983040	1744	1376
999424	992	832
1015808	1328	1184
1032192	960	928
1048576	2144	1936
1081344	1856	1664
1114112	2272	2016
1146880	2240	2016
1179648	2208	2016
1212416	1824	1680
1245184	1712	1504
1277952	1424	1216
1310720	1488	1232
1343488	1504	1312
1376256	1920	1600
1409024	1632	1504
1441792	1376	1248
1474560	1072	944
1507328	1072	1024
1540096	1280	1184
1572864	1152	1136
1605632	912	880
1638400	1232	1232
1671168	1088	1040
1703936	1088	1040
1736704	1536	1488
1769472	896	896
1802240	1056	928
1835008	1248	1152
1867776	1120	1072
1900544	800	656
1933312	928	912
1966080	912	880
1998848	896	880
2031616	800	688
2064384	848	720
2097152	1936	1760
2162688	1360	1344
2228224	1280	1216
2293760	1264	1200
2359296	1120	1104
2424832	1152	1104
2490368	1056	992
2555904	1008	992
2621440	1264	1264
2686976	960	896
2752512	880	864
2818048	848	752
2883584	768	768
2949120	592	560
3014656	928	848
3080192	768	768
3145728	752	640
3211264	1024	960
3276800	784	720
3342336	944	720
3407872	752	720
3473408	512	496
3538944	656	656
3604480	512	496
3670016	544	512
3735552	816	576
3801088	608	608
3866624	400	384
3932160	576	576
3997696	336	336
4063232	560	528
4128768	384	352
4194304	848	816
4325376	720	640
4456448	848	736
4587520	832	832
4718592	624	592
4849664	400	384
4980736	784	736
5111808	496	496
5242880	592	528
5373952	608	576
5505024	464	432
5636096	384	336
5767168	448	432
5898240	480	480
6029312	528	480
6160384	352	304
6291456	480	416
6422528	336	320
6553600	368	336
6684672	448	336
6815744	496	400
6946816	208	208
7077888	304	256
7208960	416	400
7340032	304	304
7471104	512	480
7602176	304	304
7733248	272	256
7864320	176	176
7995392	208	192
8126464	256	240
8257536	368	272
8388608	544	528
8650752	480	480
8912896	464	448
9175040	560	512
9437184	544	528
9699328	272	272
9961472	336	336
10223616	368	288
10485760	368	368
10747904	432	384
11010048	160	160
11272192	256	256
11534336	192	176
11796480	336	288
12058624	240	240
12320768	288	256
12582912	304	192
12845056	288	256
13107200	416	400
13369344	288	240
13631488	208	208
13893632	448	368
14155776	320	304
14417920	240	224
14680064	272	272
14942208	160	160
15204352	192	192
15466496	240	144
15728640	192	192
15990784	288	288
16252928	144	144
16515072	256	240
16777216	384	384
17301504	256	240
17825792	416	336
18350080	352	320
18874368	272	272
19398656	256	256
19922944	144	144
20447232	288	288
20971520	272	192
21495808	288	160
22020096	288	272
22544384	512	464
23068672	304	192
23592960	304	240
24117248	256	160
24641536	432	416
25165824	368	288
25690112	208	144
26214400	368	320
26738688	208	176
27262976	480	336
27787264	288	272
28311552	144	112
28835840	208	192
29360128	256	224
29884416	304	256
30408704	240	240
30932992	464	336
31457280	432	176
31981568	288	288
32505856	496	384
33030144	304	288
33554432	896	624
34603008	480	480
35651584	624	528
36700160	528	512
37748736	544	512
38797312	736	656
39845888	704	688
40894464	752	736
41943040	624	624
42991616	672	672
44040192	480	480
45088768	448	448
46137344	512	400
47185920	448	400
48234496	368	368
49283072	480	480
50331648	368	368
51380224	592	576
52428800	464	464
53477376	240	240
54525952	224	224
55574528	320	320
56623104	400	400
57671680	144	144
58720256	112	112
59768832	16	16
60817408	208	192
61865984	160	160
62914560	272	256
63963136	208	192
65011712	160	160
66060288	96	96
67108864	160	160
69206016	64	64
71303168	160	160
73400320	160	144
75497472	80	64
77594624	80	80
79691776	80	64
81788928	112	112
83886080	64	48
85983232	208	192
88080384	144	144
90177536	128	96
92274688	96	80
94371840	112	112
96468992	112	96
98566144	256	256
100663296	160	144
102760448	128	128
104857600	64	48
106954752	32	32
109051904	32	32
111149056	64	64
113246208	48	48
115343360	64	48
117440512	16	16
119537664	32	16
121634816	48	16
123731968	64	16
125829120	48	32
127926272	272	256
130023424	80	48
132120576	80	80
134217728	48	48
138412032	64	64
142606336	80	80
146800640	112	112
150994944	64	64
155189248	64	64
159383552	128	112
163577856	144	112
167772160	48	48
171966464	80	48
176160768	48	32
180355072	64	64
184549376	112	112
188743680	32	32
192937984	64	16
197132288	0	0
201326592	80	80
205520896	64	64
209715200	16	0
213909504	0	0
218103808	112	112
222298112	32	16
226492416	32	0
230686720	48	0
234881024	32	32
239075328	0	0
243269632	64	16
247463936	64	48
251658240	0	0
255852544	64	64
260046848	0	0
264241152	64	64
268435456	256	240
276824064	48	48
285212672	32	16
293601280	16	0
301989888	16	0
310378496	16	0
318767104	1872	1552
327155712	0	0
335544320	0	0
343932928	0	0
352321536	0	0
360710144	0	0
369098752	0	0
377487360	0	0
385875968	0	0
394264576	0	0
402653184	0	0
411041792	0	0
419430400	0	0
427819008	0	0
436207616	0	0
444596224	0	0
452984832	0	0
461373440	0	0
469762048	0	0
478150656	0	0
486539264	0	0
494927872	0	0
503316480	16	16
511705088	0	0
520093696	0	0
528482304	0	0
536870912	0	0
553648128	0	0
570425344	0	0
587202560	0	0
603979776	0	0
620756992	0	0
637534208	0	0
654311424	0	0
671088640	0	0
687865856	0	0
704643072	0	0
721420288	0	0
738197504	0	0
754974720	0	0
771751936	0	0
788529152	0	0
805306368	0	0
822083584	0	0
838860800	0	0
855638016	0	0
872415232	0	0
889192448	0	0
905969664	0	0
922746880	0	0
939524096	0	0
956301312	0	0
973078528	0	0
989855744	0	0
1006632960	0	0
1023410176	0	0
1040187392	0	0
1056964608	0	0
1073741824	0	0
1107296256	0	0
1140850688	0	0
1174405120	0	0
1207959552	0	0
1241513984	0	0
1275068416	0	0
1308622848	0	0
1342177280	0	0
1375731712	0	0
1409286144	0	0
1442840576	0	0
1476395008	0	0
1509949440	0	0
1543503872	0	0
1577058304	0	0
1610612736	0	0
1644167168	0	0
1677721600	0	0
1711276032	0	0
1744830464	0	0
1778384896	0	0
1811939328	0	0
1845493760	0	0
1879048192	0	0
1912602624	0	0
1946157056	0	0
1979711488	0	0
2013265920	0	0
2046820352	0	0
2080374784	0	0
2113929216	0	0
2147483648	0	0
2214592512	0	0
2281701376	0	0
2348810240	0	0
2415919104	0	0
2483027968	0	0
2550136832	0	0
2617245696	0	0
2684354560	0	0
2751463424	0	0
2818572288	0	0
2885681152	0	0
2952790016	0	0
3019898880	0	0
3087007744	0	0
3154116608	0	0
3221225472	0	0
3288334336	0	0
3355443200	0	0
3422552064	0	0
3489660928	0	0
3556769792	0	0
3623878656	0	0
3690987520	0	0
3758096384	0	0
3825205248	0	0
3892314112	0	0
3959422976	0	0
4026531840	0	0
4093640704	0	0
4160749568	0	0
4227858432	0	0
~~~~~~~~~~Reuse Distance Profiler output end~~~~~~~~~~

DRAM Statistics
 CHANNEL 0
 RQ ROW_BUFFER_HIT:        743  ROW_BUFFER_MISS:        882
 DBUS AVG_CONGESTED_CYCLE:    3.80273
 WQ ROW_BUFFER_HIT:          0  ROW_BUFFER_MISS:          0  FULL:          0


CPU 0 Branch Prediction Accuracy: 92.2583% MPKI: 11.4395 Average ROB Occupancy at Mispredict: 53.9903
Branch type MPKI
BRANCH_DIRECT_JUMP: 4.73333e-05
BRANCH_INDIRECT: 0.0211967
BRANCH_CONDITIONAL: 9.88983
BRANCH_DIRECT_CALL: 2.4e-05
BRANCH_INDIRECT_CALL: 0.732131
BRANCH_RETURN: 0.796302

