
*** ChampSim Multicore Out-of-Order Simulator ***

Warmup Instructions: 500000000
Simulation Instructions: 1500000000
Number of CPUs: 1
Off-chip DRAM Size: 4 GiB Channels: 1 Width: 64-bit Data Rate: 3200 MT/s

VirtualMemory physical capacity: 8588881920 num_ppages: 2096895
VirtualMemory page size: 4096 log2_page_size: 12

CPU 0 runs traces/454.calculix-104B.champsimtrace.xz
CPU 0 Bimodal branch predictor
Basic BTB sets: 1024 ways: 8 indirect buffer size: 4096 RAS size: 64
Initializing LRU.
Initializing LRU.
Initializing LRU.
Initializing LRU.
Initializing rdLRU.
Initializing LRU.
Initializing LRU.
Heartbeat CPU 0 instructions: 10000003 cycles: 3267261 heartbeat IPC: 3.06067 cumulative IPC: 3.06067 (Simulation time: 0 hr 0 min 44 sec) 
Heartbeat CPU 0 instructions: 20000002 cycles: 6534333 heartbeat IPC: 3.06084 cumulative IPC: 3.06076 (Simulation time: 0 hr 1 min 28 sec) 
Heartbeat CPU 0 instructions: 30000001 cycles: 9801413 heartbeat IPC: 3.06084 cumulative IPC: 3.06078 (Simulation time: 0 hr 2 min 12 sec) 
Heartbeat CPU 0 instructions: 40000000 cycles: 13067706 heartbeat IPC: 3.06157 cumulative IPC: 3.06098 (Simulation time: 0 hr 3 min 2 sec) 
Heartbeat CPU 0 instructions: 50000002 cycles: 16334785 heartbeat IPC: 3.06084 cumulative IPC: 3.06095 (Simulation time: 0 hr 3 min 55 sec) 
Heartbeat CPU 0 instructions: 60000003 cycles: 19571322 heartbeat IPC: 3.08972 cumulative IPC: 3.06571 (Simulation time: 0 hr 4 min 39 sec) 
Heartbeat CPU 0 instructions: 70000003 cycles: 22838412 heartbeat IPC: 3.06083 cumulative IPC: 3.06501 (Simulation time: 0 hr 5 min 32 sec) 
Heartbeat CPU 0 instructions: 80000001 cycles: 26105494 heartbeat IPC: 3.06083 cumulative IPC: 3.06449 (Simulation time: 0 hr 6 min 23 sec) 
Heartbeat CPU 0 instructions: 90000003 cycles: 29371774 heartbeat IPC: 3.06159 cumulative IPC: 3.06417 (Simulation time: 0 hr 7 min 15 sec) 
Heartbeat CPU 0 instructions: 100000003 cycles: 32638825 heartbeat IPC: 3.06086 cumulative IPC: 3.06384 (Simulation time: 0 hr 7 min 58 sec) 
Heartbeat CPU 0 instructions: 110000001 cycles: 35905914 heartbeat IPC: 3.06083 cumulative IPC: 3.06356 (Simulation time: 0 hr 8 min 41 sec) 
Heartbeat CPU 0 instructions: 120000003 cycles: 39172982 heartbeat IPC: 3.06085 cumulative IPC: 3.06334 (Simulation time: 0 hr 9 min 24 sec) 
Heartbeat CPU 0 instructions: 130000000 cycles: 42439283 heartbeat IPC: 3.06157 cumulative IPC: 3.0632 (Simulation time: 0 hr 10 min 8 sec) 
Heartbeat CPU 0 instructions: 140000000 cycles: 45633995 heartbeat IPC: 3.13017 cumulative IPC: 3.06789 (Simulation time: 0 hr 11 min 7 sec) 
Heartbeat CPU 0 instructions: 150000003 cycles: 48901035 heartbeat IPC: 3.06088 cumulative IPC: 3.06742 (Simulation time: 0 hr 11 min 54 sec) 
Heartbeat CPU 0 instructions: 160000004 cycles: 52168092 heartbeat IPC: 3.06086 cumulative IPC: 3.06701 (Simulation time: 0 hr 12 min 39 sec) 
Heartbeat CPU 0 instructions: 170000001 cycles: 55435180 heartbeat IPC: 3.06083 cumulative IPC: 3.06664 (Simulation time: 0 hr 13 min 23 sec) 
Heartbeat CPU 0 instructions: 180000001 cycles: 58701879 heartbeat IPC: 3.06119 cumulative IPC: 3.06634 (Simulation time: 0 hr 14 min 7 sec) 
Heartbeat CPU 0 instructions: 190000000 cycles: 61968538 heartbeat IPC: 3.06123 cumulative IPC: 3.06607 (Simulation time: 0 hr 14 min 51 sec) 
Heartbeat CPU 0 instructions: 200000000 cycles: 65235617 heartbeat IPC: 3.06084 cumulative IPC: 3.06581 (Simulation time: 0 hr 15 min 37 sec) 
Heartbeat CPU 0 instructions: 210000003 cycles: 68502682 heartbeat IPC: 3.06085 cumulative IPC: 3.06557 (Simulation time: 0 hr 16 min 38 sec) 
Heartbeat CPU 0 instructions: 220000001 cycles: 71769750 heartbeat IPC: 3.06085 cumulative IPC: 3.06536 (Simulation time: 0 hr 17 min 31 sec) 
Heartbeat CPU 0 instructions: 230000002 cycles: 75005761 heartbeat IPC: 3.09022 cumulative IPC: 3.06643 (Simulation time: 0 hr 18 min 20 sec) 
Heartbeat CPU 0 instructions: 240000000 cycles: 78272787 heartbeat IPC: 3.06089 cumulative IPC: 3.0662 (Simulation time: 0 hr 19 min 8 sec) 
Heartbeat CPU 0 instructions: 250000002 cycles: 81539847 heartbeat IPC: 3.06086 cumulative IPC: 3.06599 (Simulation time: 0 hr 19 min 58 sec) 
Heartbeat CPU 0 instructions: 260000000 cycles: 84806910 heartbeat IPC: 3.06085 cumulative IPC: 3.06579 (Simulation time: 0 hr 20 min 45 sec) 
Heartbeat CPU 0 instructions: 270000003 cycles: 88074001 heartbeat IPC: 3.06083 cumulative IPC: 3.0656 (Simulation time: 0 hr 21 min 39 sec) 
Heartbeat CPU 0 instructions: 280000000 cycles: 91340291 heartbeat IPC: 3.06158 cumulative IPC: 3.06546 (Simulation time: 0 hr 22 min 26 sec) 
Heartbeat CPU 0 instructions: 290000000 cycles: 94607352 heartbeat IPC: 3.06085 cumulative IPC: 3.0653 (Simulation time: 0 hr 23 min 16 sec) 
Heartbeat CPU 0 instructions: 300000002 cycles: 97874439 heartbeat IPC: 3.06083 cumulative IPC: 3.06515 (Simulation time: 0 hr 24 min 12 sec) 
Heartbeat CPU 0 instructions: 310000003 cycles: 101069197 heartbeat IPC: 3.13013 cumulative IPC: 3.06721 (Simulation time: 0 hr 25 min 15 sec) 
Heartbeat CPU 0 instructions: 320000000 cycles: 104336271 heartbeat IPC: 3.06084 cumulative IPC: 3.06701 (Simulation time: 0 hr 26 min 9 sec) 
Heartbeat CPU 0 instructions: 330000001 cycles: 107602602 heartbeat IPC: 3.06154 cumulative IPC: 3.06684 (Simulation time: 0 hr 27 min 5 sec) 
Heartbeat CPU 0 instructions: 340000000 cycles: 110869650 heartbeat IPC: 3.06087 cumulative IPC: 3.06666 (Simulation time: 0 hr 28 min 3 sec) 
Heartbeat CPU 0 instructions: 350000001 cycles: 114136709 heartbeat IPC: 3.06086 cumulative IPC: 3.0665 (Simulation time: 0 hr 28 min 49 sec) 
Heartbeat CPU 0 instructions: 360000001 cycles: 117403785 heartbeat IPC: 3.06084 cumulative IPC: 3.06634 (Simulation time: 0 hr 29 min 34 sec) 
Heartbeat CPU 0 instructions: 370000003 cycles: 120670877 heartbeat IPC: 3.06083 cumulative IPC: 3.06619 (Simulation time: 0 hr 30 min 20 sec) 
Heartbeat CPU 0 instructions: 380000002 cycles: 123937167 heartbeat IPC: 3.06158 cumulative IPC: 3.06607 (Simulation time: 0 hr 31 min 5 sec) 
Heartbeat CPU 0 instructions: 390000001 cycles: 127173348 heartbeat IPC: 3.09006 cumulative IPC: 3.06668 (Simulation time: 0 hr 31 min 48 sec) 
Heartbeat CPU 0 instructions: 400000004 cycles: 130440409 heartbeat IPC: 3.06086 cumulative IPC: 3.06653 (Simulation time: 0 hr 32 min 55 sec) 
Heartbeat CPU 0 instructions: 410000004 cycles: 133707481 heartbeat IPC: 3.06084 cumulative IPC: 3.0664 (Simulation time: 0 hr 33 min 58 sec) 
Heartbeat CPU 0 instructions: 420000001 cycles: 136974577 heartbeat IPC: 3.06082 cumulative IPC: 3.06626 (Simulation time: 0 hr 34 min 44 sec) 
Heartbeat CPU 0 instructions: 430000000 cycles: 140240867 heartbeat IPC: 3.06158 cumulative IPC: 3.06615 (Simulation time: 0 hr 35 min 33 sec) 
Heartbeat CPU 0 instructions: 440000000 cycles: 143507916 heartbeat IPC: 3.06087 cumulative IPC: 3.06603 (Simulation time: 0 hr 36 min 25 sec) 
Heartbeat CPU 0 instructions: 450000003 cycles: 146774996 heartbeat IPC: 3.06084 cumulative IPC: 3.06592 (Simulation time: 0 hr 37 min 17 sec) 
Heartbeat CPU 0 instructions: 460000000 cycles: 150042086 heartbeat IPC: 3.06083 cumulative IPC: 3.06581 (Simulation time: 0 hr 38 min 3 sec) 
Heartbeat CPU 0 instructions: 470000001 cycles: 153308390 heartbeat IPC: 3.06156 cumulative IPC: 3.06572 (Simulation time: 0 hr 38 min 48 sec) 
Heartbeat CPU 0 instructions: 480000001 cycles: 156502271 heartbeat IPC: 3.13099 cumulative IPC: 3.06705 (Simulation time: 0 hr 39 min 34 sec) 
Heartbeat CPU 0 instructions: 490000002 cycles: 159769319 heartbeat IPC: 3.06087 cumulative IPC: 3.06692 (Simulation time: 0 hr 40 min 25 sec) 
Heartbeat CPU 0 instructions: 500000000 cycles: 163036378 heartbeat IPC: 3.06086 cumulative IPC: 3.0668 (Simulation time: 0 hr 41 min 13 sec) 

Warmup complete CPU 0 instructions: 500000005 cycles: 163036379 (Simulation time: 0 hr 41 min 13 sec) 

Heartbeat CPU 0 instructions: 510000001 cycles: 169824868 heartbeat IPC: 1.47308 cumulative IPC: 1.47308 (Simulation time: 0 hr 41 min 50 sec) 
Heartbeat CPU 0 instructions: 520000003 cycles: 176613332 heartbeat IPC: 1.47309 cumulative IPC: 1.47308 (Simulation time: 0 hr 42 min 27 sec) 
Heartbeat CPU 0 instructions: 530000001 cycles: 183400348 heartbeat IPC: 1.4734 cumulative IPC: 1.47319 (Simulation time: 0 hr 42 min 58 sec) 
Heartbeat CPU 0 instructions: 540000001 cycles: 190189120 heartbeat IPC: 1.47302 cumulative IPC: 1.47315 (Simulation time: 0 hr 43 min 33 sec) 
Heartbeat CPU 0 instructions: 550000002 cycles: 196977714 heartbeat IPC: 1.47306 cumulative IPC: 1.47313 (Simulation time: 0 hr 44 min 14 sec) 
Heartbeat CPU 0 instructions: 560000000 cycles: 203791857 heartbeat IPC: 1.46754 cumulative IPC: 1.47219 (Simulation time: 0 hr 44 min 44 sec) 
Heartbeat CPU 0 instructions: 570000001 cycles: 210579083 heartbeat IPC: 1.47336 cumulative IPC: 1.47236 (Simulation time: 0 hr 45 min 24 sec) 
Heartbeat CPU 0 instructions: 580000002 cycles: 217367810 heartbeat IPC: 1.47303 cumulative IPC: 1.47244 (Simulation time: 0 hr 46 min 6 sec) 
Heartbeat CPU 0 instructions: 590000002 cycles: 224156508 heartbeat IPC: 1.47304 cumulative IPC: 1.47251 (Simulation time: 0 hr 46 min 36 sec) 
Heartbeat CPU 0 instructions: 600000000 cycles: 230945079 heartbeat IPC: 1.47306 cumulative IPC: 1.47257 (Simulation time: 0 hr 47 min 13 sec) 
Heartbeat CPU 0 instructions: 610000002 cycles: 237733483 heartbeat IPC: 1.4731 cumulative IPC: 1.47261 (Simulation time: 0 hr 47 min 42 sec) 
Heartbeat CPU 0 instructions: 620000002 cycles: 244520309 heartbeat IPC: 1.47344 cumulative IPC: 1.47268 (Simulation time: 0 hr 48 min 10 sec) 
Heartbeat CPU 0 instructions: 630000000 cycles: 251308981 heartbeat IPC: 1.47304 cumulative IPC: 1.47271 (Simulation time: 0 hr 48 min 39 sec) 
Heartbeat CPU 0 instructions: 640000004 cycles: 258097988 heartbeat IPC: 1.47297 cumulative IPC: 1.47273 (Simulation time: 0 hr 49 min 8 sec) 
Heartbeat CPU 0 instructions: 650000004 cycles: 264996180 heartbeat IPC: 1.44966 cumulative IPC: 1.47117 (Simulation time: 0 hr 49 min 37 sec) 
Heartbeat CPU 0 instructions: 660000001 cycles: 271784661 heartbeat IPC: 1.47308 cumulative IPC: 1.47129 (Simulation time: 0 hr 50 min 5 sec) 
Heartbeat CPU 0 instructions: 670000000 cycles: 278571448 heartbeat IPC: 1.47345 cumulative IPC: 1.47141 (Simulation time: 0 hr 50 min 34 sec) 
Heartbeat CPU 0 instructions: 680000002 cycles: 285360356 heartbeat IPC: 1.47299 cumulative IPC: 1.4715 (Simulation time: 0 hr 51 min 2 sec) 
Heartbeat CPU 0 instructions: 690000000 cycles: 292149122 heartbeat IPC: 1.47302 cumulative IPC: 1.47158 (Simulation time: 0 hr 51 min 31 sec) 
Heartbeat CPU 0 instructions: 700000000 cycles: 298937513 heartbeat IPC: 1.4731 cumulative IPC: 1.47166 (Simulation time: 0 hr 52 min 0 sec) 
Heartbeat CPU 0 instructions: 710000002 cycles: 305726144 heartbeat IPC: 1.47305 cumulative IPC: 1.47172 (Simulation time: 0 hr 52 min 28 sec) 
Heartbeat CPU 0 instructions: 720000001 cycles: 312513449 heartbeat IPC: 1.47334 cumulative IPC: 1.4718 (Simulation time: 0 hr 52 min 57 sec) 
Heartbeat CPU 0 instructions: 730000001 cycles: 319387266 heartbeat IPC: 1.4548 cumulative IPC: 1.47105 (Simulation time: 0 hr 53 min 26 sec) 
Heartbeat CPU 0 instructions: 740000003 cycles: 326176044 heartbeat IPC: 1.47302 cumulative IPC: 1.47113 (Simulation time: 0 hr 53 min 54 sec) 
Heartbeat CPU 0 instructions: 750000004 cycles: 332964662 heartbeat IPC: 1.47305 cumulative IPC: 1.47121 (Simulation time: 0 hr 54 min 23 sec) 
Heartbeat CPU 0 instructions: 760000000 cycles: 339753139 heartbeat IPC: 1.47308 cumulative IPC: 1.47128 (Simulation time: 0 hr 54 min 51 sec) 
Heartbeat CPU 0 instructions: 770000002 cycles: 346540178 heartbeat IPC: 1.4734 cumulative IPC: 1.47136 (Simulation time: 0 hr 55 min 26 sec) 
Heartbeat CPU 0 instructions: 780000003 cycles: 353328696 heartbeat IPC: 1.47308 cumulative IPC: 1.47142 (Simulation time: 0 hr 55 min 55 sec) 
Heartbeat CPU 0 instructions: 790000002 cycles: 360117383 heartbeat IPC: 1.47304 cumulative IPC: 1.47148 (Simulation time: 0 hr 56 min 24 sec) 
Heartbeat CPU 0 instructions: 800000004 cycles: 366906317 heartbeat IPC: 1.47299 cumulative IPC: 1.47153 (Simulation time: 0 hr 56 min 59 sec) 
Heartbeat CPU 0 instructions: 810000004 cycles: 373757118 heartbeat IPC: 1.45968 cumulative IPC: 1.47114 (Simulation time: 0 hr 57 min 33 sec) 
Heartbeat CPU 0 instructions: 820000001 cycles: 380538375 heartbeat IPC: 1.47465 cumulative IPC: 1.47125 (Simulation time: 0 hr 58 min 2 sec) 
Heartbeat CPU 0 instructions: 830000002 cycles: 387327037 heartbeat IPC: 1.47304 cumulative IPC: 1.47131 (Simulation time: 0 hr 58 min 31 sec) 
Heartbeat CPU 0 instructions: 840000000 cycles: 394115781 heartbeat IPC: 1.47303 cumulative IPC: 1.47136 (Simulation time: 0 hr 59 min 10 sec) 
Heartbeat CPU 0 instructions: 850000000 cycles: 400904168 heartbeat IPC: 1.4731 cumulative IPC: 1.47141 (Simulation time: 0 hr 59 min 45 sec) 
Heartbeat CPU 0 instructions: 860000001 cycles: 407691117 heartbeat IPC: 1.47342 cumulative IPC: 1.47146 (Simulation time: 1 hr 0 min 14 sec) 
Heartbeat CPU 0 instructions: 870000001 cycles: 414480112 heartbeat IPC: 1.47297 cumulative IPC: 1.4715 (Simulation time: 1 hr 0 min 43 sec) 
Heartbeat CPU 0 instructions: 880000002 cycles: 421268628 heartbeat IPC: 1.47308 cumulative IPC: 1.47154 (Simulation time: 1 hr 1 min 13 sec) 
Heartbeat CPU 0 instructions: 890000002 cycles: 428057319 heartbeat IPC: 1.47304 cumulative IPC: 1.47158 (Simulation time: 1 hr 1 min 42 sec) 
Heartbeat CPU 0 instructions: 900000000 cycles: 434896573 heartbeat IPC: 1.46215 cumulative IPC: 1.47134 (Simulation time: 1 hr 2 min 12 sec) 
Heartbeat CPU 0 instructions: 910000001 cycles: 441683491 heartbeat IPC: 1.47342 cumulative IPC: 1.4714 (Simulation time: 1 hr 2 min 41 sec) 
Heartbeat CPU 0 instructions: 920000004 cycles: 448472101 heartbeat IPC: 1.47306 cumulative IPC: 1.47143 (Simulation time: 1 hr 3 min 12 sec) 
Heartbeat CPU 0 instructions: 930000000 cycles: 455260677 heartbeat IPC: 1.47306 cumulative IPC: 1.47147 (Simulation time: 1 hr 3 min 42 sec) 
Heartbeat CPU 0 instructions: 940000000 cycles: 462049236 heartbeat IPC: 1.47307 cumulative IPC: 1.47151 (Simulation time: 1 hr 4 min 22 sec) 
Heartbeat CPU 0 instructions: 950000001 cycles: 468836803 heartbeat IPC: 1.47328 cumulative IPC: 1.47155 (Simulation time: 1 hr 4 min 55 sec) 
Heartbeat CPU 0 instructions: 960000000 cycles: 475625538 heartbeat IPC: 1.47303 cumulative IPC: 1.47158 (Simulation time: 1 hr 5 min 26 sec) 
Heartbeat CPU 0 instructions: 970000003 cycles: 482414142 heartbeat IPC: 1.47306 cumulative IPC: 1.47161 (Simulation time: 1 hr 5 min 55 sec) 
Heartbeat CPU 0 instructions: 980000001 cycles: 489228425 heartbeat IPC: 1.46751 cumulative IPC: 1.47153 (Simulation time: 1 hr 6 min 40 sec) 
Heartbeat CPU 0 instructions: 990000000 cycles: 496017100 heartbeat IPC: 1.47304 cumulative IPC: 1.47156 (Simulation time: 1 hr 7 min 16 sec) 
Heartbeat CPU 0 instructions: 1000000004 cycles: 502804076 heartbeat IPC: 1.47341 cumulative IPC: 1.47159 (Simulation time: 1 hr 7 min 45 sec) 
Heartbeat CPU 0 instructions: 1010000002 cycles: 509592783 heartbeat IPC: 1.47303 cumulative IPC: 1.47162 (Simulation time: 1 hr 8 min 14 sec) 
Heartbeat CPU 0 instructions: 1020000004 cycles: 516381575 heartbeat IPC: 1.47302 cumulative IPC: 1.47165 (Simulation time: 1 hr 8 min 42 sec) 
Heartbeat CPU 0 instructions: 1030000002 cycles: 523170159 heartbeat IPC: 1.47306 cumulative IPC: 1.47168 (Simulation time: 1 hr 9 min 11 sec) 
Heartbeat CPU 0 instructions: 1040000004 cycles: 529957012 heartbeat IPC: 1.47344 cumulative IPC: 1.47171 (Simulation time: 1 hr 9 min 52 sec) 
Heartbeat CPU 0 instructions: 1050000000 cycles: 536745987 heartbeat IPC: 1.47298 cumulative IPC: 1.47173 (Simulation time: 1 hr 10 min 39 sec) 
Heartbeat CPU 0 instructions: 1060000004 cycles: 543534456 heartbeat IPC: 1.47309 cumulative IPC: 1.47176 (Simulation time: 1 hr 11 min 8 sec) 
Heartbeat CPU 0 instructions: 1070000001 cycles: 550379841 heartbeat IPC: 1.46084 cumulative IPC: 1.47156 (Simulation time: 1 hr 11 min 38 sec) 
Heartbeat CPU 0 instructions: 1080000004 cycles: 557168352 heartbeat IPC: 1.47308 cumulative IPC: 1.47159 (Simulation time: 1 hr 12 min 7 sec) 
Heartbeat CPU 0 instructions: 1090000000 cycles: 563955289 heartbeat IPC: 1.47342 cumulative IPC: 1.47162 (Simulation time: 1 hr 12 min 36 sec) 
Heartbeat CPU 0 instructions: 1100000000 cycles: 570744442 heartbeat IPC: 1.47294 cumulative IPC: 1.47164 (Simulation time: 1 hr 13 min 5 sec) 
Heartbeat CPU 0 instructions: 1110000000 cycles: 577532914 heartbeat IPC: 1.47309 cumulative IPC: 1.47166 (Simulation time: 1 hr 13 min 34 sec) 
Heartbeat CPU 0 instructions: 1120000002 cycles: 584321523 heartbeat IPC: 1.47306 cumulative IPC: 1.47169 (Simulation time: 1 hr 14 min 3 sec) 
Heartbeat CPU 0 instructions: 1130000002 cycles: 591109518 heartbeat IPC: 1.47319 cumulative IPC: 1.47171 (Simulation time: 1 hr 14 min 32 sec) 
Heartbeat CPU 0 instructions: 1140000000 cycles: 597897155 heartbeat IPC: 1.47327 cumulative IPC: 1.47174 (Simulation time: 1 hr 15 min 1 sec) 
Heartbeat CPU 0 instructions: 1150000000 cycles: 604724510 heartbeat IPC: 1.4647 cumulative IPC: 1.47163 (Simulation time: 1 hr 15 min 40 sec) 
Heartbeat CPU 0 instructions: 1160000002 cycles: 611513029 heartbeat IPC: 1.47308 cumulative IPC: 1.47165 (Simulation time: 1 hr 16 min 9 sec) 
Heartbeat CPU 0 instructions: 1170000000 cycles: 618301668 heartbeat IPC: 1.47305 cumulative IPC: 1.47167 (Simulation time: 1 hr 16 min 37 sec) 
Heartbeat CPU 0 instructions: 1180000000 cycles: 625088949 heartbeat IPC: 1.47334 cumulative IPC: 1.47169 (Simulation time: 1 hr 17 min 5 sec) 
Heartbeat CPU 0 instructions: 1190000001 cycles: 631877536 heartbeat IPC: 1.47306 cumulative IPC: 1.47171 (Simulation time: 1 hr 17 min 34 sec) 
Heartbeat CPU 0 instructions: 1200000001 cycles: 638666388 heartbeat IPC: 1.473 cumulative IPC: 1.47173 (Simulation time: 1 hr 18 min 2 sec) 
Heartbeat CPU 0 instructions: 1210000000 cycles: 645455199 heartbeat IPC: 1.47301 cumulative IPC: 1.47175 (Simulation time: 1 hr 18 min 31 sec) 
Heartbeat CPU 0 instructions: 1220000001 cycles: 652243526 heartbeat IPC: 1.47312 cumulative IPC: 1.47177 (Simulation time: 1 hr 19 min 8 sec) 
Heartbeat CPU 0 instructions: 1230000000 cycles: 659065802 heartbeat IPC: 1.46579 cumulative IPC: 1.47169 (Simulation time: 1 hr 19 min 37 sec) 
Heartbeat CPU 0 instructions: 1240000004 cycles: 665854490 heartbeat IPC: 1.47304 cumulative IPC: 1.47171 (Simulation time: 1 hr 20 min 6 sec) 
Heartbeat CPU 0 instructions: 1250000000 cycles: 672643589 heartbeat IPC: 1.47295 cumulative IPC: 1.47172 (Simulation time: 1 hr 20 min 35 sec) 
Heartbeat CPU 0 instructions: 1260000000 cycles: 679432286 heartbeat IPC: 1.47304 cumulative IPC: 1.47174 (Simulation time: 1 hr 21 min 4 sec) 
Heartbeat CPU 0 instructions: 1270000004 cycles: 686220654 heartbeat IPC: 1.47311 cumulative IPC: 1.47176 (Simulation time: 1 hr 21 min 33 sec) 
Heartbeat CPU 0 instructions: 1280000000 cycles: 693007586 heartbeat IPC: 1.47342 cumulative IPC: 1.47178 (Simulation time: 1 hr 22 min 3 sec) 
Heartbeat CPU 0 instructions: 1290000004 cycles: 699796251 heartbeat IPC: 1.47304 cumulative IPC: 1.47179 (Simulation time: 1 hr 22 min 52 sec) 
Heartbeat CPU 0 instructions: 1300000002 cycles: 706584870 heartbeat IPC: 1.47305 cumulative IPC: 1.47181 (Simulation time: 1 hr 23 min 27 sec) 
Heartbeat CPU 0 instructions: 1310000003 cycles: 713373378 heartbeat IPC: 1.47308 cumulative IPC: 1.47183 (Simulation time: 1 hr 23 min 56 sec) 
Heartbeat CPU 0 instructions: 1320000001 cycles: 720183940 heartbeat IPC: 1.46831 cumulative IPC: 1.47178 (Simulation time: 1 hr 24 min 25 sec) 
Heartbeat CPU 0 instructions: 1330000001 cycles: 726973168 heartbeat IPC: 1.47292 cumulative IPC: 1.4718 (Simulation time: 1 hr 24 min 54 sec) 
Heartbeat CPU 0 instructions: 1340000003 cycles: 733761695 heartbeat IPC: 1.47307 cumulative IPC: 1.47181 (Simulation time: 1 hr 25 min 25 sec) 
Heartbeat CPU 0 instructions: 1350000000 cycles: 740550391 heartbeat IPC: 1.47304 cumulative IPC: 1.47183 (Simulation time: 1 hr 26 min 13 sec) 
Heartbeat CPU 0 instructions: 1360000001 cycles: 747338969 heartbeat IPC: 1.47306 cumulative IPC: 1.47184 (Simulation time: 1 hr 26 min 46 sec) 
Heartbeat CPU 0 instructions: 1370000004 cycles: 754126066 heartbeat IPC: 1.47338 cumulative IPC: 1.47186 (Simulation time: 1 hr 27 min 24 sec) 
Heartbeat CPU 0 instructions: 1380000001 cycles: 760914589 heartbeat IPC: 1.47307 cumulative IPC: 1.47187 (Simulation time: 1 hr 28 min 10 sec) 
Heartbeat CPU 0 instructions: 1390000000 cycles: 767703107 heartbeat IPC: 1.47308 cumulative IPC: 1.47189 (Simulation time: 1 hr 28 min 44 sec) 
Heartbeat CPU 0 instructions: 1400000003 cycles: 774527696 heartbeat IPC: 1.46529 cumulative IPC: 1.47181 (Simulation time: 1 hr 29 min 13 sec) 
Heartbeat CPU 0 instructions: 1410000000 cycles: 781316376 heartbeat IPC: 1.47304 cumulative IPC: 1.47183 (Simulation time: 1 hr 29 min 42 sec) 
Heartbeat CPU 0 instructions: 1420000000 cycles: 788103299 heartbeat IPC: 1.47342 cumulative IPC: 1.47184 (Simulation time: 1 hr 30 min 12 sec) 
Heartbeat CPU 0 instructions: 1430000000 cycles: 794891751 heartbeat IPC: 1.47309 cumulative IPC: 1.47186 (Simulation time: 1 hr 30 min 40 sec) 
Heartbeat CPU 0 instructions: 1440000003 cycles: 801680390 heartbeat IPC: 1.47305 cumulative IPC: 1.47187 (Simulation time: 1 hr 31 min 9 sec) 
Heartbeat CPU 0 instructions: 1450000001 cycles: 808469146 heartbeat IPC: 1.47302 cumulative IPC: 1.47188 (Simulation time: 1 hr 31 min 38 sec) 
Heartbeat CPU 0 instructions: 1460000004 cycles: 815256091 heartbeat IPC: 1.47342 cumulative IPC: 1.4719 (Simulation time: 1 hr 32 min 7 sec) 
Heartbeat CPU 0 instructions: 1470000001 cycles: 822044657 heartbeat IPC: 1.47306 cumulative IPC: 1.47191 (Simulation time: 1 hr 32 min 37 sec) 
Heartbeat CPU 0 instructions: 1480000004 cycles: 828833874 heartbeat IPC: 1.47292 cumulative IPC: 1.47192 (Simulation time: 1 hr 33 min 6 sec) 
Heartbeat CPU 0 instructions: 1490000001 cycles: 835635791 heartbeat IPC: 1.47017 cumulative IPC: 1.4719 (Simulation time: 1 hr 33 min 35 sec) 
Heartbeat CPU 0 instructions: 1500000002 cycles: 842424377 heartbeat IPC: 1.47306 cumulative IPC: 1.47191 (Simulation time: 1 hr 34 min 4 sec) 
Heartbeat CPU 0 instructions: 1510000003 cycles: 849211350 heartbeat IPC: 1.47341 cumulative IPC: 1.47193 (Simulation time: 1 hr 34 min 33 sec) 
Heartbeat CPU 0 instructions: 1520000000 cycles: 855999930 heartbeat IPC: 1.47306 cumulative IPC: 1.47194 (Simulation time: 1 hr 35 min 3 sec) 
Heartbeat CPU 0 instructions: 1530000002 cycles: 862788547 heartbeat IPC: 1.47305 cumulative IPC: 1.47195 (Simulation time: 1 hr 35 min 45 sec) 
Heartbeat CPU 0 instructions: 1540000001 cycles: 869577113 heartbeat IPC: 1.47307 cumulative IPC: 1.47196 (Simulation time: 1 hr 36 min 14 sec) 
Heartbeat CPU 0 instructions: 1550000000 cycles: 876364195 heartbeat IPC: 1.47339 cumulative IPC: 1.47197 (Simulation time: 1 hr 36 min 43 sec) 
Heartbeat CPU 0 instructions: 1560000004 cycles: 883153158 heartbeat IPC: 1.47298 cumulative IPC: 1.47198 (Simulation time: 1 hr 37 min 13 sec) 
Heartbeat CPU 0 instructions: 1570000000 cycles: 889983865 heartbeat IPC: 1.46398 cumulative IPC: 1.47191 (Simulation time: 1 hr 37 min 42 sec) 
Heartbeat CPU 0 instructions: 1580000001 cycles: 896772453 heartbeat IPC: 1.47306 cumulative IPC: 1.47192 (Simulation time: 1 hr 38 min 11 sec) 
Heartbeat CPU 0 instructions: 1590000003 cycles: 903560815 heartbeat IPC: 1.47311 cumulative IPC: 1.47193 (Simulation time: 1 hr 38 min 48 sec) 
Heartbeat CPU 0 instructions: 1600000003 cycles: 910347706 heartbeat IPC: 1.47343 cumulative IPC: 1.47194 (Simulation time: 1 hr 39 min 17 sec) 
Heartbeat CPU 0 instructions: 1610000004 cycles: 917136590 heartbeat IPC: 1.473 cumulative IPC: 1.47195 (Simulation time: 1 hr 39 min 46 sec) 
Heartbeat CPU 0 instructions: 1620000001 cycles: 923924986 heartbeat IPC: 1.4731 cumulative IPC: 1.47196 (Simulation time: 1 hr 40 min 14 sec) 
Heartbeat CPU 0 instructions: 1630000004 cycles: 930713882 heartbeat IPC: 1.47299 cumulative IPC: 1.47197 (Simulation time: 1 hr 40 min 42 sec) 
Heartbeat CPU 0 instructions: 1640000000 cycles: 937500603 heartbeat IPC: 1.47346 cumulative IPC: 1.47199 (Simulation time: 1 hr 41 min 11 sec) 
Heartbeat CPU 0 instructions: 1650000001 cycles: 944312776 heartbeat IPC: 1.46796 cumulative IPC: 1.47195 (Simulation time: 1 hr 41 min 39 sec) 
Heartbeat CPU 0 instructions: 1660000002 cycles: 951101649 heartbeat IPC: 1.473 cumulative IPC: 1.47196 (Simulation time: 1 hr 42 min 7 sec) 
Heartbeat CPU 0 instructions: 1670000002 cycles: 957890059 heartbeat IPC: 1.4731 cumulative IPC: 1.47197 (Simulation time: 1 hr 42 min 36 sec) 
Heartbeat CPU 0 instructions: 1680000001 cycles: 964678406 heartbeat IPC: 1.47311 cumulative IPC: 1.47198 (Simulation time: 1 hr 43 min 4 sec) 
Heartbeat CPU 0 instructions: 1690000003 cycles: 971465182 heartbeat IPC: 1.47345 cumulative IPC: 1.47199 (Simulation time: 1 hr 43 min 33 sec) 
Heartbeat CPU 0 instructions: 1700000004 cycles: 978253916 heartbeat IPC: 1.47303 cumulative IPC: 1.472 (Simulation time: 1 hr 44 min 2 sec) 
Heartbeat CPU 0 instructions: 1710000003 cycles: 985043036 heartbeat IPC: 1.47294 cumulative IPC: 1.47201 (Simulation time: 1 hr 44 min 31 sec) 
Heartbeat CPU 0 instructions: 1720000001 cycles: 991831395 heartbeat IPC: 1.47311 cumulative IPC: 1.47202 (Simulation time: 1 hr 45 min 0 sec) 
Heartbeat CPU 0 instructions: 1730000001 cycles: 998619984 heartbeat IPC: 1.47306 cumulative IPC: 1.47203 (Simulation time: 1 hr 45 min 29 sec) 
Heartbeat CPU 0 instructions: 1740000000 cycles: 1005434023 heartbeat IPC: 1.46756 cumulative IPC: 1.47199 (Simulation time: 1 hr 46 min 0 sec) 
Heartbeat CPU 0 instructions: 1750000001 cycles: 1012222639 heartbeat IPC: 1.47305 cumulative IPC: 1.472 (Simulation time: 1 hr 46 min 28 sec) 
Heartbeat CPU 0 instructions: 1760000000 cycles: 1019011345 heartbeat IPC: 1.47303 cumulative IPC: 1.47201 (Simulation time: 1 hr 46 min 57 sec) 
Heartbeat CPU 0 instructions: 1770000002 cycles: 1025799925 heartbeat IPC: 1.47306 cumulative IPC: 1.47201 (Simulation time: 1 hr 47 min 26 sec) 
Heartbeat CPU 0 instructions: 1780000002 cycles: 1032588642 heartbeat IPC: 1.47303 cumulative IPC: 1.47202 (Simulation time: 1 hr 47 min 55 sec) 
Heartbeat CPU 0 instructions: 1790000000 cycles: 1039375880 heartbeat IPC: 1.47335 cumulative IPC: 1.47203 (Simulation time: 1 hr 48 min 24 sec) 
Heartbeat CPU 0 instructions: 1800000000 cycles: 1046164396 heartbeat IPC: 1.47308 cumulative IPC: 1.47204 (Simulation time: 1 hr 48 min 53 sec) 
Heartbeat CPU 0 instructions: 1810000004 cycles: 1052953070 heartbeat IPC: 1.47304 cumulative IPC: 1.47205 (Simulation time: 1 hr 49 min 21 sec) 
Heartbeat CPU 0 instructions: 1820000000 cycles: 1059756101 heartbeat IPC: 1.46993 cumulative IPC: 1.47203 (Simulation time: 1 hr 49 min 50 sec) 
Heartbeat CPU 0 instructions: 1830000000 cycles: 1066543097 heartbeat IPC: 1.47341 cumulative IPC: 1.47204 (Simulation time: 1 hr 50 min 19 sec) 
Heartbeat CPU 0 instructions: 1840000002 cycles: 1073331792 heartbeat IPC: 1.47304 cumulative IPC: 1.47205 (Simulation time: 1 hr 50 min 48 sec) 
Heartbeat CPU 0 instructions: 1850000000 cycles: 1080120440 heartbeat IPC: 1.47305 cumulative IPC: 1.47206 (Simulation time: 1 hr 51 min 17 sec) 
Heartbeat CPU 0 instructions: 1860000001 cycles: 1086909495 heartbeat IPC: 1.47296 cumulative IPC: 1.47206 (Simulation time: 1 hr 51 min 46 sec) 
Heartbeat CPU 0 instructions: 1870000000 cycles: 1093697969 heartbeat IPC: 1.47308 cumulative IPC: 1.47207 (Simulation time: 1 hr 52 min 15 sec) 
Heartbeat CPU 0 instructions: 1880000000 cycles: 1100484900 heartbeat IPC: 1.47342 cumulative IPC: 1.47208 (Simulation time: 1 hr 52 min 44 sec) 
Heartbeat CPU 0 instructions: 1890000003 cycles: 1107273443 heartbeat IPC: 1.47307 cumulative IPC: 1.47209 (Simulation time: 1 hr 53 min 13 sec) 
Heartbeat CPU 0 instructions: 1900000004 cycles: 1114062047 heartbeat IPC: 1.47306 cumulative IPC: 1.47209 (Simulation time: 1 hr 53 min 42 sec) 
Heartbeat CPU 0 instructions: 1910000004 cycles: 1120877954 heartbeat IPC: 1.46716 cumulative IPC: 1.47206 (Simulation time: 1 hr 54 min 11 sec) 
Heartbeat CPU 0 instructions: 1920000001 cycles: 1127666400 heartbeat IPC: 1.47309 cumulative IPC: 1.47207 (Simulation time: 1 hr 54 min 39 sec) 
Heartbeat CPU 0 instructions: 1930000000 cycles: 1134453813 heartbeat IPC: 1.47332 cumulative IPC: 1.47208 (Simulation time: 1 hr 55 min 8 sec) 
Heartbeat CPU 0 instructions: 1940000001 cycles: 1141242479 heartbeat IPC: 1.47304 cumulative IPC: 1.47208 (Simulation time: 1 hr 55 min 37 sec) 
Heartbeat CPU 0 instructions: 1950000001 cycles: 1148031054 heartbeat IPC: 1.47306 cumulative IPC: 1.47209 (Simulation time: 1 hr 56 min 5 sec) 
Heartbeat CPU 0 instructions: 1960000000 cycles: 1154819694 heartbeat IPC: 1.47305 cumulative IPC: 1.4721 (Simulation time: 1 hr 56 min 33 sec) 
Heartbeat CPU 0 instructions: 1970000001 cycles: 1161606750 heartbeat IPC: 1.47339 cumulative IPC: 1.4721 (Simulation time: 1 hr 57 min 2 sec) 
Heartbeat CPU 0 instructions: 1980000003 cycles: 1168395346 heartbeat IPC: 1.47306 cumulative IPC: 1.47211 (Simulation time: 1 hr 57 min 31 sec) 
Heartbeat CPU 0 instructions: 1990000001 cycles: 1175197735 heartbeat IPC: 1.47007 cumulative IPC: 1.4721 (Simulation time: 1 hr 58 min 0 sec) 
*** Reached end of trace: traces/454.calculix-104B.champsimtrace.xz
Heartbeat CPU 0 instructions: 2000000000 cycles: 1181986236 heartbeat IPC: 1.47308 cumulative IPC: 1.4721 (Simulation time: 1 hr 58 min 29 sec) 
Finished CPU 0 instructions: 1500000001 cycles: 1018949859 cumulative IPC: 1.4721 (Simulation time: 1 hr 58 min 29 sec) 

ChampSim completed all CPUs

Region of Interest Statistics

CPU 0 cumulative IPC: 1.4721 instructions: 1500000001 cycles: 1018949859
cpu0_DTLB TOTAL     ACCESS:  304575925  HIT:  304574003  MISS:       1922
cpu0_DTLB LOAD      ACCESS:  292209554  HIT:  292207659  MISS:       1895
cpu0_DTLB RFO       ACCESS:   12366371  HIT:   12366344  MISS:         27
cpu0_DTLB PREFETCH  ACCESS:          0  HIT:          0  MISS:          0
cpu0_DTLB WRITEBACK ACCESS:          0  HIT:          0  MISS:          0
cpu0_DTLB TRANSLATION ACCESS:          0  HIT:          0  MISS:          0
cpu0_DTLB PREFETCH  REQUESTED:          0  ISSUED:          0  USEFUL:          0  USELESS:          0
cpu0_DTLB AVERAGE MISS LATENCY: 21.512 cycles
cpu0_ITLB TOTAL     ACCESS:  151076471  HIT:  151076471  MISS:          0
cpu0_ITLB LOAD      ACCESS:  151076471  HIT:  151076471  MISS:          0
cpu0_ITLB RFO       ACCESS:          0  HIT:          0  MISS:          0
cpu0_ITLB PREFETCH  ACCESS:          0  HIT:          0  MISS:          0
cpu0_ITLB WRITEBACK ACCESS:          0  HIT:          0  MISS:          0
cpu0_ITLB TRANSLATION ACCESS:          0  HIT:          0  MISS:          0
cpu0_ITLB PREFETCH  REQUESTED:          0  ISSUED:          0  USEFUL:          0  USELESS:          0
cpu0_ITLB AVERAGE MISS LATENCY: -nan cycles
cpu0_L1I TOTAL     ACCESS:     608076  HIT:     608076  MISS:          0
cpu0_L1I LOAD      ACCESS:     608076  HIT:     608076  MISS:          0
cpu0_L1I RFO       ACCESS:          0  HIT:          0  MISS:          0
cpu0_L1I PREFETCH  ACCESS:          0  HIT:          0  MISS:          0
cpu0_L1I WRITEBACK ACCESS:          0  HIT:          0  MISS:          0
cpu0_L1I TRANSLATION ACCESS:          0  HIT:          0  MISS:          0
cpu0_L1I PREFETCH  REQUESTED:          0  ISSUED:          0  USEFUL:          0  USELESS:          0
cpu0_L1I AVERAGE MISS LATENCY: -nan cycles
cpu0_STLB TOTAL     ACCESS:       1922  HIT:       1809  MISS:        113
cpu0_STLB LOAD      ACCESS:       1895  HIT:       1782  MISS:        113
cpu0_STLB RFO       ACCESS:         27  HIT:         27  MISS:          0
cpu0_STLB PREFETCH  ACCESS:          0  HIT:          0  MISS:          0
cpu0_STLB WRITEBACK ACCESS:          0  HIT:          0  MISS:          0
cpu0_STLB TRANSLATION ACCESS:          0  HIT:          0  MISS:          0
cpu0_STLB PREFETCH  REQUESTED:          0  ISSUED:          0  USEFUL:          0  USELESS:          0
cpu0_STLB AVERAGE MISS LATENCY: 212.584 cycles
cpu0_L1D TOTAL     ACCESS:  359286366  HIT:  359260508  MISS:      25858
cpu0_L1D LOAD      ACCESS:  330652341  HIT:  330633666  MISS:      18675
cpu0_L1D RFO       ACCESS:   28633913  HIT:   28626777  MISS:       7136
cpu0_L1D PREFETCH  ACCESS:          0  HIT:          0  MISS:          0
cpu0_L1D WRITEBACK ACCESS:          0  HIT:          0  MISS:          0
cpu0_L1D TRANSLATION ACCESS:        112  HIT:         65  MISS:         47
cpu0_L1D PREFETCH  REQUESTED:          0  ISSUED:          0  USEFUL:          0  USELESS:          0
cpu0_L1D AVERAGE MISS LATENCY: 52.5013 cycles
cpu0_L2C TOTAL     ACCESS:      41553  HIT:      34590  MISS:       6963
cpu0_L2C LOAD      ACCESS:      18674  HIT:      11711  MISS:       6963
cpu0_L2C RFO       ACCESS:       7083  HIT:       7083  MISS:          0
cpu0_L2C PREFETCH  ACCESS:          0  HIT:          0  MISS:          0
cpu0_L2C WRITEBACK ACCESS:      15749  HIT:      15749  MISS:          0
cpu0_L2C TRANSLATION ACCESS:         47  HIT:         47  MISS:          0
cpu0_L2C PREFETCH  REQUESTED:          0  ISSUED:          0  USEFUL:          0  USELESS:          0
cpu0_L2C AVERAGE MISS LATENCY: 154.102 cycles
LLC TOTAL     ACCESS:       8428  HIT:       1822  MISS:       6606
LLC LOAD      ACCESS:       6963  HIT:        357  MISS:       6606
LLC RFO       ACCESS:          0  HIT:          0  MISS:          0
LLC PREFETCH  ACCESS:          0  HIT:          0  MISS:          0
LLC WRITEBACK ACCESS:       1465  HIT:       1465  MISS:          0
LLC TRANSLATION ACCESS:          0  HIT:          0  MISS:          0
LLC PREFETCH  REQUESTED:          0  ISSUED:          0  USEFUL:          0  USELESS:          0
LLC AVERAGE MISS LATENCY: 140.295 cycles
~~~~~~~~~~Reuse Distance Profiler output~~~~~~~~~~
0	22670800	13459472
1	36545920	26660192
2	64376688	60505088
3	61583296	58933248
4	41456080	40319840
5	36554400	34023504
6	31947056	30902240
7	19376640	19170176
8	10320448	9500512
9	12756640	12325712
10	14296720	14152192
11	16065600	14981904
12	9729776	9421056
13	8683744	8404480
14	10473696	10046240
15	6617312	6363424
16	2267248	2168512
17	2031184	1891184
18	1396672	1244496
19	1890624	1794336
20	1374896	1258912
21	745968	718752
22	256400	238784
23	510160	487424
24	975648	948176
25	850416	837920
26	906736	886288
27	162640	153248
28	472496	432160
29	121728	70304
30	64080	56208
31	57456	51488
32	392384	336480
33	57200	38880
34	230976	202752
35	540752	531968
36	437344	426400
37	1603856	1596256
38	2229792	2210016
39	3228672	3214528
40	3114832	2804768
41	1724912	1720496
42	1045104	711104
43	1990736	1885776
44	1509504	1394176
45	1253600	1245200
46	1645376	1480848
47	868368	867040
48	931328	902368
49	447664	442448
50	853744	853232
51	672544	671568
52	539424	501072
53	403808	402352
54	366368	364320
55	610288	567808
56	10016	3152
57	228288	220576
58	59664	10576
59	339456	333088
60	679888	621632
61	63904	59072
62	147168	133472
63	436128	432160
64	739552	718128
66	15264	11456
68	267840	260560
70	144448	138720
72	114048	111904
74	222624	219648
76	986032	944336
78	174832	125344
80	90464	71360
82	225856	221616
84	415232	400160
86	877968	875040
88	1148304	1141920
90	917120	915168
92	1160992	1156384
94	1864544	1863664
96	3004672	3003792
98	2908240	2907840
100	2286256	2247040
102	2217840	2212832
104	1044176	1002368
106	1145312	1139536
108	1141600	1141104
110	1334576	1332352
112	2081040	2067376
114	3320368	3310704
116	1527600	1512144
118	2232672	2231424
120	1876224	1875936
122	1434112	1433616
124	663248	663152
126	675264	675232
128	765760	765504
132	910640	910528
136	946096	946064
140	659664	659664
144	1309168	1308624
148	514048	513504
152	102288	101968
156	3296	2944
160	15680	15344
164	257104	256976
168	224896	224512
172	58912	58656
176	91872	91872
180	406384	406384
184	172912	172832
188	210816	210320
192	79312	79216
196	35472	35360
200	58624	58592
204	164656	164656
208	77136	77088
212	10128	10112
216	26064	25568
220	28000	27920
224	3488	2944
228	416	416
232	1696	1696
236	1872	1456
240	976	976
244	464	416
248	368	368
252	624	528
256	2192	1584
264	2368	1872
272	2288	2256
280	1840	752
288	1200	1152
296	704	624
304	848	656
312	1136	1104
320	848	816
328	2240	832
336	2000	1024
344	105392	105184
352	103424	103392
360	606336	606336
368	1420048	705584
376	926160	722368
384	312704	312704
392	219952	219952
400	1152	1088
408	33072	33008
416	62096	62080
424	263680	258400
432	157184	126000
440	144448	144320
448	379408	232752
456	262496	144432
464	73584	59088
472	1680	1632
480	3392	3312
488	28912	28912
496	1248	1248
504	1792	1792
512	2192	2192
528	3184	3184
544	4128	4112
560	960	960
576	2096	1584
592	1632	1600
608	1152	1152
624	2256	1776
640	2256	2080
656	944	912
672	624	624
688	1360	1360
704	1920	1920
720	3536	3536
736	1984	1680
752	2448	1776
768	523040	522560
784	89328	89088
800	1088	896
816	94624	94624
832	24432	24432
848	1680	1680
864	2032	2032
880	816	816
896	140432	140432
912	97744	97744
928	4576	4576
944	7920	7680
960	1296	1168
976	1824	1536
992	1056	832
1008	1200	1200
1024	1472	1472
1056	1040	1024
1088	1200	880
1120	1568	1536
1152	1504	1248
1184	1312	1216
1216	1088	1088
1248	2512	2512
1280	3120	2528
1312	2912	2912
1344	1872	1872
1376	1536	1536
1408	1120	1120
1440	2880	2240
1472	5728	2240
1504	2608	1632
1536	14352	14352
1568	2064	1696
1600	3808	2192
1632	5472	3760
1664	6736	4816
1696	3584	3184
1728	3536	2816
1760	2976	2288
1792	4528	4448
1824	7488	7456
1856	2640	2304
1888	2176	2096
1920	15888	15376
1952	2432	1888
1984	2000	1728
2016	2224	1488
2048	5632	4608
2112	6368	5776
2176	5728	5728
2240	12304	12160
2304	1888	1888
2368	160	160
2432	240	240
2496	176	160
2560	256	256
2624	576	224
2688	496	272
2752	336	336
2816	560	560
2880	640	640
2944	640	640
3008	576	576
3072	15152	15152
3136	416	416
3200	992	208
3264	288	288
3328	64	64
3392	144	144
3456	622672	622672
3520	306704	306704
3584	720	720
3648	5280	5248
3712	448	448
3776	1136	1136
3840	336	304
3904	1296	1248
3968	560	512
4032	39504	39504
4096	280688	280624
4224	912	864
4352	496	496
4480	928	896
4608	848	736
4736	720	672
4864	336	320
4992	400	400
5120	384	384
5248	496	496
5376	560	560
5504	352	320
5632	272	256
5760	736	720
5888	512	512
6016	320	304
6144	592	576
6272	432	384
6400	912	864
6528	368	352
6656	384	368
6784	176	176
6912	160	144
7040	608	608
7168	208	208
7296	288	288
7424	160	160
7552	224	224
7680	480	480
7808	384	368
7936	352	320
8064	240	192
8192	1296	1232
8448	784	768
8704	224	176
8960	416	416
9216	112	112
9472	96	96
9728	144	144
9984	160	144
10240	144	144
10496	1120	1120
10752	768	656
11008	480	448
11264	176	80
11520	304	208
11776	96	96
12032	208	176
12288	640	624
12544	304	304
12800	48	48
13056	208	208
13312	112	112
13568	144	128
13824	896	880
14080	976	912
14336	144	48
14592	208	128
14848	256	176
15104	80	32
15360	80	80
15616	112	112
15872	128	112
16128	128	128
16384	656	592
16896	560	544
17408	1472	1472
17920	448	320
18432	352	112
18944	448	416
19456	224	224
19968	96	96
20480	1104	1088
20992	1744	1712
21504	640	624
22016	224	224
22528	256	160
23040	320	128
23552	272	144
24064	80	80
24576	2512	2512
25088	304	304
25600	256	240
26112	144	128
26624	128	128
27136	176	176
27648	144	80
28160	2416	2256
28672	928	800
29184	272	256
29696	192	144
30208	64	48
30720	80	64
31232	2016	2016
31744	416	416
32256	64	48
32768	992	944
33792	336	96
34816	2512	2352
35840	240	208
36864	1104	1088
37888	2928	2880
38912	480	480
39936	256	96
40960	1312	1008
41984	2816	2816
43008	112	48
44032	64	64
45056	4224	4208
46080	48	16
47104	240	96
48128	272	32
49152	4352	4352
50176	48	16
51200	128	128
52224	4112	4112
53248	1856	1840
54272	160	16
55296	384	48
56320	4704	4560
57344	1520	1424
58368	32	32
59392	4144	4128
60416	592	592
61440	2144	2144
62464	272	240
63488	352	48
64512	352	48
65536	1616	1584
67584	128	96
69632	2144	2096
71680	1248	544
73728	128	112
75776	720	96
77824	352	96
79872	64	64
81920	48	48
83968	48	48
86016	48	48
88064	16	16
90112	48	48
92160	112	80
94208	32	16
96256	32	32
98304	544	528
100352	80	80
102400	64	48
104448	80	48
106496	96	16
108544	0	0
110592	16	16
112640	32	32
114688	288	240
116736	64	64
118784	0	0
120832	64	64
122880	16	0
124928	32	0
126976	48	32
129024	48	48
131072	144	112
135168	80	64
139264	80	80
143360	144	144
147456	112	112
151552	80	32
155648	560	528
159744	96	96
163840	112	96
167936	64	32
172032	64	0
176128	96	32
180224	48	16
184320	304	256
188416	32	32
192512	32	32
196608	64	64
200704	80	80
204800	160	160
208896	64	64
212992	48	32
217088	96	96
221184	64	64
225280	32	32
229376	624	624
233472	80	80
237568	48	48
241664	48	48
245760	64	64
249856	112	112
253952	0	0
258048	112	112
262144	160	160
270336	272	272
278528	48	48
286720	48	48
294912	96	96
303104	64	64
311296	256	256
319488	880	880
327680	96	96
335872	112	112
344064	64	64
352256	96	96
360448	240	240
368640	384	384
376832	160	160
385024	80	80
393216	32	32
401408	32	32
409600	224	224
417792	704	704
425984	224	224
434176	176	176
442368	80	80
450560	176	176
458752	80	80
466944	176	176
475136	32	32
483328	96	96
491520	336	336
499712	256	256
507904	240	240
516096	80	80
524288	672	672
540672	352	352
557056	80	80
573440	240	224
589824	160	160
606208	160	144
622592	544	544
638976	224	224
655360	848	848
671744	1360	1360
688128	304	304
704512	384	352
720896	105616	105616
737280	75376	67184
753664	96	80
770048	320	320
786432	528	496
802816	1088	688
819200	32	32
835584	128	128
851968	45360	45360
868352	17408	14400
884736	16	16
901120	0	0
917504	64	16
933888	224	128
950272	0	0
966656	0	0
983040	0	0
999424	0	0
1015808	16	0
1032192	128	64
1048576	0	0
1081344	0	0
1114112	0	0
1146880	0	0
1179648	0	0
1212416	0	0
1245184	0	0
1277952	0	0
1310720	0	0
1343488	0	0
1376256	0	0
1409024	0	0
1441792	0	0
1474560	0	0
1507328	0	0
1540096	0	0
1572864	0	0
1605632	0	0
1638400	0	0
1671168	0	0
1703936	0	0
1736704	0	0
1769472	0	0
1802240	0	0
1835008	0	0
1867776	0	0
1900544	0	0
1933312	0	0
1966080	0	0
1998848	0	0
2031616	0	0
2064384	0	0
2097152	0	0
2162688	0	0
2228224	0	0
2293760	0	0
2359296	0	0
2424832	0	0
2490368	0	0
2555904	0	0
2621440	0	0
2686976	0	0
2752512	0	0
2818048	0	0
2883584	0	0
2949120	0	0
3014656	0	0
3080192	0	0
3145728	0	0
3211264	0	0
3276800	0	0
3342336	0	0
3407872	0	0
3473408	0	0
3538944	0	0
3604480	0	0
3670016	0	0
3735552	0	0
3801088	0	0
3866624	0	0
3932160	0	0
3997696	0	0
4063232	0	0
4128768	0	0
4194304	0	0
4325376	0	0
4456448	0	0
4587520	0	0
4718592	0	0
4849664	0	0
4980736	0	0
5111808	0	0
5242880	0	0
5373952	0	0
5505024	0	0
5636096	0	0
5767168	0	0
5898240	0	0
6029312	0	0
6160384	0	0
6291456	0	0
6422528	0	0
6553600	0	0
6684672	0	0
6815744	0	0
6946816	0	0
7077888	0	0
7208960	0	0
7340032	0	0
7471104	0	0
7602176	0	0
7733248	0	0
7864320	0	0
7995392	0	0
8126464	0	0
8257536	0	0
8388608	0	0
8650752	0	0
8912896	0	0
9175040	0	0
9437184	0	0
9699328	0	0
9961472	0	0
10223616	0	0
10485760	0	0
10747904	0	0
11010048	0	0
11272192	0	0
11534336	0	0
11796480	0	0
12058624	0	0
12320768	0	0
12582912	0	0
12845056	0	0
13107200	0	0
13369344	0	0
13631488	0	0
13893632	0	0
14155776	0	0
14417920	0	0
14680064	32	32
14942208	0	0
15204352	0	0
15466496	0	0
15728640	0	0
15990784	0	0
16252928	0	0
16515072	0	0
16777216	0	0
17301504	16	16
17825792	16	16
18350080	80	80
18874368	192	192
19398656	0	0
19922944	6688	3456
20447232	32	32
20971520	384	224
21495808	0	0
22020096	0	0
22544384	96	96
23068672	1104	944
23592960	1264	608
24117248	0	0
24641536	16	16
25165824	0	0
25690112	0	0
26214400	0	0
26738688	0	0
27262976	0	0
27787264	0	0
28311552	0	0
28835840	0	0
29360128	0	0
29884416	0	0
30408704	0	0
30932992	0	0
31457280	0	0
31981568	0	0
32505856	0	0
33030144	0	0
33554432	0	0
34603008	0	0
35651584	0	0
36700160	0	0
37748736	0	0
38797312	0	0
39845888	208	208
40894464	272	272
41943040	0	0
42991616	0	0
44040192	176	176
45088768	0	0
46137344	128	128
47185920	272	272
48234496	0	0
49283072	0	0
50331648	0	0
51380224	0	0
52428800	0	0
53477376	0	0
54525952	0	0
55574528	0	0
56623104	0	0
57671680	0	0
58720256	0	0
59768832	800	800
60817408	48	48
61865984	0	0
62914560	0	0
63963136	0	0
65011712	0	0
66060288	0	0
67108864	32	32
69206016	176	176
71303168	0	0
73400320	0	0
75497472	0	0
77594624	0	0
79691776	896	896
81788928	0	0
83886080	0	0
85983232	0	0
88080384	64	64
90177536	80	80
92274688	16	16
94371840	272	272
96468992	0	0
98566144	80	80
100663296	16	16
102760448	0	0
104857600	0	0
106954752	0	0
109051904	0	0
111149056	0	0
113246208	0	0
115343360	0	0
117440512	0	0
119537664	336	336
121634816	0	0
123731968	0	0
125829120	0	0
127926272	0	0
130023424	0	0
132120576	0	0
134217728	0	0
138412032	64	64
142606336	0	0
146800640	0	0
150994944	0	0
155189248	0	0
159383552	16	16
163577856	0	0
167772160	0	0
171966464	0	0
176160768	0	0
180355072	208	208
184549376	0	0
188743680	80	80
192937984	0	0
197132288	464	464
201326592	0	0
205520896	0	0
209715200	0	0
213909504	0	0
218103808	0	0
222298112	0	0
226492416	0	0
230686720	0	0
234881024	0	0
239075328	0	0
243269632	0	0
247463936	0	0
251658240	0	0
255852544	0	0
260046848	0	0
264241152	0	0
268435456	0	0
276824064	0	0
285212672	0	0
293601280	0	0
301989888	0	0
310378496	0	0
318767104	0	0
327155712	0	0
335544320	0	0
343932928	64	64
352321536	0	0
360710144	0	0
369098752	0	0
377487360	0	0
385875968	0	0
394264576	0	0
402653184	0	0
411041792	0	0
419430400	0	0
427819008	0	0
436207616	16	16
444596224	0	0
452984832	0	0
461373440	0	0
469762048	0	0
478150656	0	0
486539264	0	0
494927872	0	0
503316480	0	0
511705088	0	0
520093696	0	0
528482304	0	0
536870912	0	0
553648128	0	0
570425344	0	0
587202560	0	0
603979776	0	0
620756992	0	0
637534208	0	0
654311424	0	0
671088640	0	0
687865856	0	0
704643072	0	0
721420288	0	0
738197504	0	0
754974720	0	0
771751936	0	0
788529152	0	0
805306368	0	0
822083584	0	0
838860800	0	0
855638016	0	0
872415232	0	0
889192448	0	0
905969664	0	0
922746880	0	0
939524096	0	0
956301312	0	0
973078528	0	0
989855744	0	0
1006632960	0	0
1023410176	0	0
1040187392	0	0
1056964608	0	0
1073741824	0	0
1107296256	0	0
1140850688	0	0
1174405120	0	0
1207959552	0	0
1241513984	0	0
1275068416	0	0
1308622848	0	0
1342177280	0	0
1375731712	0	0
1409286144	0	0
1442840576	0	0
1476395008	0	0
1509949440	0	0
1543503872	0	0
1577058304	0	0
1610612736	0	0
1644167168	0	0
1677721600	0	0
1711276032	0	0
1744830464	0	0
1778384896	0	0
1811939328	0	0
1845493760	0	0
1879048192	0	0
1912602624	0	0
1946157056	0	0
1979711488	0	0
2013265920	0	0
2046820352	0	0
2080374784	0	0
2113929216	0	0
2147483648	0	0
2214592512	0	0
2281701376	0	0
2348810240	0	0
2415919104	0	0
2483027968	0	0
2550136832	0	0
2617245696	0	0
2684354560	0	0
2751463424	0	0
2818572288	0	0
2885681152	0	0
2952790016	0	0
3019898880	0	0
3087007744	0	0
3154116608	0	0
3221225472	0	0
3288334336	0	0
3355443200	0	0
3422552064	0	0
3489660928	0	0
3556769792	0	0
3623878656	0	0
3690987520	0	0
3758096384	0	0
3825205248	0	0
3892314112	0	0
3959422976	0	0
4026531840	0	0
4093640704	0	0
4160749568	0	0
4227858432	0	0
~~~~~~~~~~Reuse Distance Profiler output end~~~~~~~~~~

DRAM Statistics
 CHANNEL 0
 RQ ROW_BUFFER_HIT:       1551  ROW_BUFFER_MISS:       5055
 DBUS AVG_CONGESTED_CYCLE:    2.83242
 WQ ROW_BUFFER_HIT:          0  ROW_BUFFER_MISS:          0  FULL:          0


CPU 0 Branch Prediction Accuracy: 52.8629% MPKI: 42.4996 Average ROB Occupancy at Mispredict: 40.4125
Branch type MPKI
BRANCH_DIRECT_JUMP: 0
BRANCH_INDIRECT: 0
BRANCH_CONDITIONAL: 42.4996
BRANCH_DIRECT_CALL: 0
BRANCH_INDIRECT_CALL: 0
BRANCH_RETURN: 0

