
*** ChampSim Multicore Out-of-Order Simulator ***

Warmup Instructions: 500000000
Simulation Instructions: 1500000000
Number of CPUs: 1
Off-chip DRAM Size: 4 GiB Channels: 1 Width: 64-bit Data Rate: 3200 MT/s

VirtualMemory physical capacity: 8588881920 num_ppages: 2096895
VirtualMemory page size: 4096 log2_page_size: 12

CPU 0 runs traces/454.calculix-460B.champsimtrace.xz
CPU 0 Bimodal branch predictor
Basic BTB sets: 1024 ways: 8 indirect buffer size: 4096 RAS size: 64
Initializing LRU.
Initializing LRU.
Initializing LRU.
Initializing LRU.
Initializing rdLRU.
Initializing LRU.
Initializing LRU.
Heartbeat CPU 0 instructions: 10000002 cycles: 2511215 heartbeat IPC: 3.98214 cumulative IPC: 3.98214 (Simulation time: 0 hr 0 min 28 sec) 
Heartbeat CPU 0 instructions: 20000002 cycles: 5015928 heartbeat IPC: 3.99247 cumulative IPC: 3.9873 (Simulation time: 0 hr 1 min 1 sec) 
Heartbeat CPU 0 instructions: 30000003 cycles: 7523627 heartbeat IPC: 3.98772 cumulative IPC: 3.98744 (Simulation time: 0 hr 1 min 39 sec) 
Heartbeat CPU 0 instructions: 40000001 cycles: 10032179 heartbeat IPC: 3.98636 cumulative IPC: 3.98717 (Simulation time: 0 hr 2 min 11 sec) 
Heartbeat CPU 0 instructions: 50000003 cycles: 12541005 heartbeat IPC: 3.98593 cumulative IPC: 3.98692 (Simulation time: 0 hr 2 min 40 sec) 
Heartbeat CPU 0 instructions: 60000003 cycles: 15053833 heartbeat IPC: 3.97958 cumulative IPC: 3.9857 (Simulation time: 0 hr 3 min 10 sec) 
Heartbeat CPU 0 instructions: 70000001 cycles: 17828818 heartbeat IPC: 3.60362 cumulative IPC: 3.92623 (Simulation time: 0 hr 3 min 49 sec) 
Heartbeat CPU 0 instructions: 80000000 cycles: 20706681 heartbeat IPC: 3.4748 cumulative IPC: 3.86349 (Simulation time: 0 hr 4 min 30 sec) 
Heartbeat CPU 0 instructions: 90000003 cycles: 23277385 heartbeat IPC: 3.88999 cumulative IPC: 3.86641 (Simulation time: 0 hr 4 min 59 sec) 
Heartbeat CPU 0 instructions: 100000002 cycles: 25779511 heartbeat IPC: 3.9966 cumulative IPC: 3.87905 (Simulation time: 0 hr 5 min 27 sec) 
Heartbeat CPU 0 instructions: 110000002 cycles: 28285863 heartbeat IPC: 3.98986 cumulative IPC: 3.88887 (Simulation time: 0 hr 5 min 55 sec) 
Heartbeat CPU 0 instructions: 120000001 cycles: 30791179 heartbeat IPC: 3.99151 cumulative IPC: 3.89722 (Simulation time: 0 hr 6 min 23 sec) 
Heartbeat CPU 0 instructions: 130000001 cycles: 33296799 heartbeat IPC: 3.99103 cumulative IPC: 3.90428 (Simulation time: 0 hr 6 min 51 sec) 
Heartbeat CPU 0 instructions: 140000000 cycles: 35802202 heartbeat IPC: 3.99137 cumulative IPC: 3.91037 (Simulation time: 0 hr 7 min 20 sec) 
Heartbeat CPU 0 instructions: 150000001 cycles: 38305627 heartbeat IPC: 3.99453 cumulative IPC: 3.91587 (Simulation time: 0 hr 7 min 49 sec) 
Heartbeat CPU 0 instructions: 160000001 cycles: 40811042 heartbeat IPC: 3.99135 cumulative IPC: 3.92051 (Simulation time: 0 hr 8 min 17 sec) 
Heartbeat CPU 0 instructions: 170000002 cycles: 43318877 heartbeat IPC: 3.9875 cumulative IPC: 3.92439 (Simulation time: 0 hr 8 min 46 sec) 
Heartbeat CPU 0 instructions: 180000000 cycles: 45826940 heartbeat IPC: 3.98714 cumulative IPC: 3.92782 (Simulation time: 0 hr 9 min 15 sec) 
Heartbeat CPU 0 instructions: 190000001 cycles: 48335065 heartbeat IPC: 3.98704 cumulative IPC: 3.93089 (Simulation time: 0 hr 9 min 44 sec) 
Heartbeat CPU 0 instructions: 200000002 cycles: 50848848 heartbeat IPC: 3.97807 cumulative IPC: 3.93323 (Simulation time: 0 hr 10 min 13 sec) 
Heartbeat CPU 0 instructions: 210000002 cycles: 53361879 heartbeat IPC: 3.97926 cumulative IPC: 3.93539 (Simulation time: 0 hr 10 min 41 sec) 
Heartbeat CPU 0 instructions: 220000003 cycles: 55872214 heartbeat IPC: 3.98353 cumulative IPC: 3.93756 (Simulation time: 0 hr 11 min 10 sec) 
Heartbeat CPU 0 instructions: 230000001 cycles: 58376923 heartbeat IPC: 3.99248 cumulative IPC: 3.93991 (Simulation time: 0 hr 11 min 39 sec) 
Heartbeat CPU 0 instructions: 240000003 cycles: 60886478 heartbeat IPC: 3.98477 cumulative IPC: 3.94176 (Simulation time: 0 hr 12 min 8 sec) 
Heartbeat CPU 0 instructions: 250000003 cycles: 63395486 heartbeat IPC: 3.98564 cumulative IPC: 3.9435 (Simulation time: 0 hr 12 min 37 sec) 
Heartbeat CPU 0 instructions: 260000000 cycles: 65906345 heartbeat IPC: 3.9827 cumulative IPC: 3.94499 (Simulation time: 0 hr 13 min 7 sec) 
Heartbeat CPU 0 instructions: 270000004 cycles: 68426743 heartbeat IPC: 3.96763 cumulative IPC: 3.94583 (Simulation time: 0 hr 13 min 36 sec) 
Heartbeat CPU 0 instructions: 280000000 cycles: 71295746 heartbeat IPC: 3.48553 cumulative IPC: 3.9273 (Simulation time: 0 hr 14 min 15 sec) 
Heartbeat CPU 0 instructions: 290000003 cycles: 74109584 heartbeat IPC: 3.55387 cumulative IPC: 3.91312 (Simulation time: 0 hr 14 min 52 sec) 
Heartbeat CPU 0 instructions: 300000003 cycles: 76611712 heartbeat IPC: 3.9966 cumulative IPC: 3.91585 (Simulation time: 0 hr 15 min 22 sec) 
Heartbeat CPU 0 instructions: 310000000 cycles: 79116917 heartbeat IPC: 3.99169 cumulative IPC: 3.91825 (Simulation time: 0 hr 15 min 52 sec) 
Heartbeat CPU 0 instructions: 320000001 cycles: 81619240 heartbeat IPC: 3.99629 cumulative IPC: 3.92064 (Simulation time: 0 hr 16 min 27 sec) 
Heartbeat CPU 0 instructions: 330000002 cycles: 84125412 heartbeat IPC: 3.99015 cumulative IPC: 3.92271 (Simulation time: 0 hr 16 min 58 sec) 
Heartbeat CPU 0 instructions: 340000001 cycles: 86630770 heartbeat IPC: 3.99145 cumulative IPC: 3.9247 (Simulation time: 0 hr 17 min 28 sec) 
Heartbeat CPU 0 instructions: 350000000 cycles: 89136499 heartbeat IPC: 3.99085 cumulative IPC: 3.92656 (Simulation time: 0 hr 17 min 57 sec) 
Heartbeat CPU 0 instructions: 360000002 cycles: 91642017 heartbeat IPC: 3.99119 cumulative IPC: 3.92833 (Simulation time: 0 hr 18 min 25 sec) 
Heartbeat CPU 0 instructions: 370000003 cycles: 94145672 heartbeat IPC: 3.99416 cumulative IPC: 3.93008 (Simulation time: 0 hr 18 min 54 sec) 
Heartbeat CPU 0 instructions: 380000002 cycles: 96651205 heartbeat IPC: 3.99117 cumulative IPC: 3.93166 (Simulation time: 0 hr 19 min 22 sec) 
Heartbeat CPU 0 instructions: 390000002 cycles: 99159240 heartbeat IPC: 3.98719 cumulative IPC: 3.93307 (Simulation time: 0 hr 19 min 50 sec) 
Heartbeat CPU 0 instructions: 400000002 cycles: 101667412 heartbeat IPC: 3.98697 cumulative IPC: 3.9344 (Simulation time: 0 hr 20 min 19 sec) 
Heartbeat CPU 0 instructions: 410000003 cycles: 104175876 heartbeat IPC: 3.9865 cumulative IPC: 3.93565 (Simulation time: 0 hr 20 min 47 sec) 
Heartbeat CPU 0 instructions: 420000001 cycles: 106686915 heartbeat IPC: 3.98241 cumulative IPC: 3.93675 (Simulation time: 0 hr 21 min 16 sec) 
Heartbeat CPU 0 instructions: 430000003 cycles: 109200501 heartbeat IPC: 3.97838 cumulative IPC: 3.93771 (Simulation time: 0 hr 21 min 45 sec) 
Heartbeat CPU 0 instructions: 440000003 cycles: 111715272 heartbeat IPC: 3.97651 cumulative IPC: 3.93858 (Simulation time: 0 hr 22 min 13 sec) 
Heartbeat CPU 0 instructions: 450000002 cycles: 114220432 heartbeat IPC: 3.99176 cumulative IPC: 3.93975 (Simulation time: 0 hr 22 min 40 sec) 
Heartbeat CPU 0 instructions: 460000002 cycles: 116728694 heartbeat IPC: 3.98682 cumulative IPC: 3.94076 (Simulation time: 0 hr 23 min 8 sec) 
Heartbeat CPU 0 instructions: 470000003 cycles: 119238290 heartbeat IPC: 3.98471 cumulative IPC: 3.94169 (Simulation time: 0 hr 23 min 36 sec) 
Heartbeat CPU 0 instructions: 480000003 cycles: 121751368 heartbeat IPC: 3.97918 cumulative IPC: 3.94246 (Simulation time: 0 hr 24 min 3 sec) 
Heartbeat CPU 0 instructions: 490000001 cycles: 124393592 heartbeat IPC: 3.78469 cumulative IPC: 3.93911 (Simulation time: 0 hr 24 min 34 sec) 
Heartbeat CPU 0 instructions: 500000000 cycles: 127265015 heartbeat IPC: 3.48259 cumulative IPC: 3.92881 (Simulation time: 0 hr 25 min 12 sec) 

Warmup complete CPU 0 instructions: 500000002 cycles: 127265016 (Simulation time: 0 hr 25 min 12 sec) 

Heartbeat CPU 0 instructions: 510000002 cycles: 130775645 heartbeat IPC: 2.84849 cumulative IPC: 2.84849 (Simulation time: 0 hr 25 min 48 sec) 
Heartbeat CPU 0 instructions: 520000002 cycles: 134280866 heartbeat IPC: 2.85289 cumulative IPC: 2.85069 (Simulation time: 0 hr 26 min 21 sec) 
Heartbeat CPU 0 instructions: 530000003 cycles: 138223619 heartbeat IPC: 2.5363 cumulative IPC: 2.73758 (Simulation time: 0 hr 26 min 57 sec) 
Heartbeat CPU 0 instructions: 540000004 cycles: 142380032 heartbeat IPC: 2.40592 cumulative IPC: 2.64638 (Simulation time: 0 hr 27 min 35 sec) 
Heartbeat CPU 0 instructions: 550000001 cycles: 145958329 heartbeat IPC: 2.79462 cumulative IPC: 2.67475 (Simulation time: 0 hr 28 min 8 sec) 
Heartbeat CPU 0 instructions: 560000000 cycles: 149779592 heartbeat IPC: 2.61694 cumulative IPC: 2.66494 (Simulation time: 0 hr 28 min 42 sec) 
Heartbeat CPU 0 instructions: 570000001 cycles: 153548015 heartbeat IPC: 2.65363 cumulative IPC: 2.66332 (Simulation time: 0 hr 29 min 17 sec) 
Heartbeat CPU 0 instructions: 580000002 cycles: 157212265 heartbeat IPC: 2.72907 cumulative IPC: 2.67136 (Simulation time: 0 hr 29 min 51 sec) 
Heartbeat CPU 0 instructions: 590000004 cycles: 160846777 heartbeat IPC: 2.7514 cumulative IPC: 2.68003 (Simulation time: 0 hr 30 min 25 sec) 
Heartbeat CPU 0 instructions: 600000002 cycles: 164490635 heartbeat IPC: 2.74434 cumulative IPC: 2.68632 (Simulation time: 0 hr 31 min 3 sec) 
Heartbeat CPU 0 instructions: 610000002 cycles: 167780379 heartbeat IPC: 3.03975 cumulative IPC: 2.71502 (Simulation time: 0 hr 31 min 35 sec) 
Heartbeat CPU 0 instructions: 620000001 cycles: 171353091 heartbeat IPC: 2.79899 cumulative IPC: 2.72182 (Simulation time: 0 hr 32 min 12 sec) 
Heartbeat CPU 0 instructions: 630000001 cycles: 175060831 heartbeat IPC: 2.69706 cumulative IPC: 2.7199 (Simulation time: 0 hr 32 min 47 sec) 
Heartbeat CPU 0 instructions: 640000004 cycles: 178846090 heartbeat IPC: 2.64183 cumulative IPC: 2.71417 (Simulation time: 0 hr 33 min 21 sec) 
Heartbeat CPU 0 instructions: 650000002 cycles: 182780056 heartbeat IPC: 2.54196 cumulative IPC: 2.70197 (Simulation time: 0 hr 33 min 56 sec) 
Heartbeat CPU 0 instructions: 660000004 cycles: 186737485 heartbeat IPC: 2.52689 cumulative IPC: 2.69032 (Simulation time: 0 hr 34 min 28 sec) 
Heartbeat CPU 0 instructions: 670000001 cycles: 190906255 heartbeat IPC: 2.39879 cumulative IPC: 2.67122 (Simulation time: 0 hr 35 min 7 sec) 
Heartbeat CPU 0 instructions: 680000004 cycles: 194703287 heartbeat IPC: 2.63364 cumulative IPC: 2.66911 (Simulation time: 0 hr 35 min 39 sec) 
Heartbeat CPU 0 instructions: 690000001 cycles: 198448889 heartbeat IPC: 2.6698 cumulative IPC: 2.66914 (Simulation time: 0 hr 36 min 14 sec) 
Heartbeat CPU 0 instructions: 700000002 cycles: 201933542 heartbeat IPC: 2.86973 cumulative IPC: 2.6785 (Simulation time: 0 hr 36 min 47 sec) 
Heartbeat CPU 0 instructions: 710000002 cycles: 205635165 heartbeat IPC: 2.70152 cumulative IPC: 2.67959 (Simulation time: 0 hr 37 min 31 sec) 
Heartbeat CPU 0 instructions: 720000003 cycles: 208614228 heartbeat IPC: 3.35676 cumulative IPC: 2.70439 (Simulation time: 0 hr 38 min 8 sec) 
Heartbeat CPU 0 instructions: 730000003 cycles: 212068161 heartbeat IPC: 2.89525 cumulative IPC: 2.71216 (Simulation time: 0 hr 38 min 43 sec) 
Heartbeat CPU 0 instructions: 740000001 cycles: 215697445 heartbeat IPC: 2.75536 cumulative IPC: 2.71394 (Simulation time: 0 hr 39 min 18 sec) 
Heartbeat CPU 0 instructions: 750000003 cycles: 219331672 heartbeat IPC: 2.75162 cumulative IPC: 2.71542 (Simulation time: 0 hr 39 min 53 sec) 
Heartbeat CPU 0 instructions: 760000000 cycles: 223491500 heartbeat IPC: 2.40394 cumulative IPC: 2.70196 (Simulation time: 0 hr 40 min 30 sec) 
Heartbeat CPU 0 instructions: 770000000 cycles: 227166323 heartbeat IPC: 2.72122 cumulative IPC: 2.70267 (Simulation time: 0 hr 41 min 5 sec) 
Heartbeat CPU 0 instructions: 780000000 cycles: 230998251 heartbeat IPC: 2.60965 cumulative IPC: 2.69923 (Simulation time: 0 hr 41 min 42 sec) 
Heartbeat CPU 0 instructions: 790000001 cycles: 234606299 heartbeat IPC: 2.77158 cumulative IPC: 2.70166 (Simulation time: 0 hr 42 min 17 sec) 
Heartbeat CPU 0 instructions: 800000003 cycles: 238276431 heartbeat IPC: 2.7247 cumulative IPC: 2.70242 (Simulation time: 0 hr 42 min 52 sec) 
Heartbeat CPU 0 instructions: 810000004 cycles: 241908982 heartbeat IPC: 2.75289 cumulative IPC: 2.70402 (Simulation time: 0 hr 43 min 33 sec) 
Heartbeat CPU 0 instructions: 820000003 cycles: 245519233 heartbeat IPC: 2.76989 cumulative IPC: 2.70603 (Simulation time: 0 hr 44 min 7 sec) 
Heartbeat CPU 0 instructions: 830000004 cycles: 249120089 heartbeat IPC: 2.77712 cumulative IPC: 2.70814 (Simulation time: 0 hr 44 min 41 sec) 
Heartbeat CPU 0 instructions: 840000003 cycles: 252496469 heartbeat IPC: 2.96175 cumulative IPC: 2.71497 (Simulation time: 0 hr 45 min 13 sec) 
Heartbeat CPU 0 instructions: 850000004 cycles: 256354865 heartbeat IPC: 2.59175 cumulative IPC: 2.71129 (Simulation time: 0 hr 45 min 47 sec) 
Heartbeat CPU 0 instructions: 860000001 cycles: 260556247 heartbeat IPC: 2.38017 cumulative IPC: 2.70085 (Simulation time: 0 hr 46 min 24 sec) 
Heartbeat CPU 0 instructions: 870000003 cycles: 264766222 heartbeat IPC: 2.37531 cumulative IPC: 2.69089 (Simulation time: 0 hr 46 min 58 sec) 
Heartbeat CPU 0 instructions: 880000003 cycles: 268743723 heartbeat IPC: 2.51414 cumulative IPC: 2.68592 (Simulation time: 0 hr 47 min 31 sec) 
Heartbeat CPU 0 instructions: 890000000 cycles: 272565095 heartbeat IPC: 2.61686 cumulative IPC: 2.6841 (Simulation time: 0 hr 48 min 3 sec) 
Heartbeat CPU 0 instructions: 900000002 cycles: 276293911 heartbeat IPC: 2.68182 cumulative IPC: 2.68404 (Simulation time: 0 hr 48 min 35 sec) 
Heartbeat CPU 0 instructions: 910000004 cycles: 279966242 heartbeat IPC: 2.72307 cumulative IPC: 2.68498 (Simulation time: 0 hr 49 min 10 sec) 
Heartbeat CPU 0 instructions: 920000003 cycles: 283228450 heartbeat IPC: 3.06541 cumulative IPC: 2.69294 (Simulation time: 0 hr 50 min 10 sec) 
Heartbeat CPU 0 instructions: 930000003 cycles: 286457959 heartbeat IPC: 3.09645 cumulative IPC: 2.70112 (Simulation time: 0 hr 51 min 18 sec) 
Heartbeat CPU 0 instructions: 940000000 cycles: 289867322 heartbeat IPC: 2.9331 cumulative IPC: 2.70599 (Simulation time: 0 hr 52 min 18 sec) 
Heartbeat CPU 0 instructions: 950000004 cycles: 293635219 heartbeat IPC: 2.654 cumulative IPC: 2.70481 (Simulation time: 0 hr 53 min 24 sec) 
Heartbeat CPU 0 instructions: 960000003 cycles: 297547306 heartbeat IPC: 2.55618 cumulative IPC: 2.7014 (Simulation time: 0 hr 54 min 31 sec) 
Heartbeat CPU 0 instructions: 970000001 cycles: 300999965 heartbeat IPC: 2.89632 cumulative IPC: 2.70527 (Simulation time: 0 hr 55 min 11 sec) 
Heartbeat CPU 0 instructions: 980000001 cycles: 304981041 heartbeat IPC: 2.51188 cumulative IPC: 2.70094 (Simulation time: 0 hr 55 min 49 sec) 
Heartbeat CPU 0 instructions: 990000003 cycles: 308749253 heartbeat IPC: 2.65378 cumulative IPC: 2.69996 (Simulation time: 0 hr 56 min 45 sec) 
Heartbeat CPU 0 instructions: 1000000001 cycles: 312176776 heartbeat IPC: 2.91756 cumulative IPC: 2.70399 (Simulation time: 0 hr 57 min 32 sec) 
Heartbeat CPU 0 instructions: 1010000001 cycles: 315680113 heartbeat IPC: 2.85442 cumulative IPC: 2.70679 (Simulation time: 0 hr 58 min 5 sec) 
Heartbeat CPU 0 instructions: 1020000002 cycles: 319278215 heartbeat IPC: 2.77924 cumulative IPC: 2.70815 (Simulation time: 0 hr 58 min 39 sec) 
Heartbeat CPU 0 instructions: 1030000004 cycles: 322882535 heartbeat IPC: 2.77445 cumulative IPC: 2.70937 (Simulation time: 0 hr 59 min 14 sec) 
Heartbeat CPU 0 instructions: 1040000004 cycles: 326471308 heartbeat IPC: 2.78647 cumulative IPC: 2.71076 (Simulation time: 0 hr 59 min 49 sec) 
Heartbeat CPU 0 instructions: 1050000001 cycles: 330026234 heartbeat IPC: 2.813 cumulative IPC: 2.71255 (Simulation time: 1 hr 0 min 24 sec) 
Heartbeat CPU 0 instructions: 1060000003 cycles: 333766633 heartbeat IPC: 2.67351 cumulative IPC: 2.71184 (Simulation time: 1 hr 0 min 59 sec) 
Heartbeat CPU 0 instructions: 1070000004 cycles: 337429735 heartbeat IPC: 2.72993 cumulative IPC: 2.71216 (Simulation time: 1 hr 1 min 38 sec) 
Heartbeat CPU 0 instructions: 1080000003 cycles: 341408664 heartbeat IPC: 2.51324 cumulative IPC: 2.70846 (Simulation time: 1 hr 2 min 39 sec) 
Heartbeat CPU 0 instructions: 1090000001 cycles: 345462759 heartbeat IPC: 2.46664 cumulative IPC: 2.70397 (Simulation time: 1 hr 3 min 21 sec) 
Heartbeat CPU 0 instructions: 1100000002 cycles: 349589316 heartbeat IPC: 2.42333 cumulative IPC: 2.69876 (Simulation time: 1 hr 3 min 56 sec) 
Heartbeat CPU 0 instructions: 1110000003 cycles: 353332101 heartbeat IPC: 2.67181 cumulative IPC: 2.69831 (Simulation time: 1 hr 4 min 28 sec) 
Heartbeat CPU 0 instructions: 1120000000 cycles: 356947409 heartbeat IPC: 2.76602 cumulative IPC: 2.69938 (Simulation time: 1 hr 5 min 0 sec) 
Heartbeat CPU 0 instructions: 1130000003 cycles: 360405078 heartbeat IPC: 2.89212 cumulative IPC: 2.70224 (Simulation time: 1 hr 5 min 38 sec) 
Heartbeat CPU 0 instructions: 1140000002 cycles: 363440951 heartbeat IPC: 3.29395 cumulative IPC: 2.70984 (Simulation time: 1 hr 6 min 13 sec) 
Heartbeat CPU 0 instructions: 1150000000 cycles: 366834524 heartbeat IPC: 2.94675 cumulative IPC: 2.7132 (Simulation time: 1 hr 6 min 47 sec) 
Heartbeat CPU 0 instructions: 1160000002 cycles: 370481498 heartbeat IPC: 2.742 cumulative IPC: 2.71363 (Simulation time: 1 hr 7 min 22 sec) 
Heartbeat CPU 0 instructions: 1170000000 cycles: 374381254 heartbeat IPC: 2.56426 cumulative IPC: 2.71127 (Simulation time: 1 hr 7 min 58 sec) 
Heartbeat CPU 0 instructions: 1180000001 cycles: 377842374 heartbeat IPC: 2.88924 cumulative IPC: 2.71373 (Simulation time: 1 hr 8 min 32 sec) 
Heartbeat CPU 0 instructions: 1190000003 cycles: 381740382 heartbeat IPC: 2.56541 cumulative IPC: 2.71146 (Simulation time: 1 hr 9 min 9 sec) 
Heartbeat CPU 0 instructions: 1200000004 cycles: 385512969 heartbeat IPC: 2.6507 cumulative IPC: 2.71057 (Simulation time: 1 hr 9 min 45 sec) 
Heartbeat CPU 0 instructions: 1210000002 cycles: 389132739 heartbeat IPC: 2.76261 cumulative IPC: 2.71129 (Simulation time: 1 hr 10 min 19 sec) 
Heartbeat CPU 0 instructions: 1220000002 cycles: 392601123 heartbeat IPC: 2.88319 cumulative IPC: 2.71354 (Simulation time: 1 hr 10 min 53 sec) 
Heartbeat CPU 0 instructions: 1230000004 cycles: 396040201 heartbeat IPC: 2.90776 cumulative IPC: 2.71602 (Simulation time: 1 hr 11 min 36 sec) 
Heartbeat CPU 0 instructions: 1240000004 cycles: 399599132 heartbeat IPC: 2.80983 cumulative IPC: 2.71725 (Simulation time: 1 hr 12 min 29 sec) 
Heartbeat CPU 0 instructions: 1250000002 cycles: 403169509 heartbeat IPC: 2.80082 cumulative IPC: 2.71833 (Simulation time: 1 hr 13 min 3 sec) 
Heartbeat CPU 0 instructions: 1260000003 cycles: 406740623 heartbeat IPC: 2.80025 cumulative IPC: 2.71938 (Simulation time: 1 hr 13 min 37 sec) 
Heartbeat CPU 0 instructions: 1270000002 cycles: 410380117 heartbeat IPC: 2.74763 cumulative IPC: 2.71974 (Simulation time: 1 hr 14 min 12 sec) 
Heartbeat CPU 0 instructions: 1280000000 cycles: 414145607 heartbeat IPC: 2.6557 cumulative IPC: 2.7189 (Simulation time: 1 hr 14 min 47 sec) 
Heartbeat CPU 0 instructions: 1290000002 cycles: 417979415 heartbeat IPC: 2.60837 cumulative IPC: 2.71744 (Simulation time: 1 hr 15 min 22 sec) 
Heartbeat CPU 0 instructions: 1300000002 cycles: 421923144 heartbeat IPC: 2.53567 cumulative IPC: 2.71501 (Simulation time: 1 hr 15 min 56 sec) 
Heartbeat CPU 0 instructions: 1310000000 cycles: 426085882 heartbeat IPC: 2.40226 cumulative IPC: 2.71065 (Simulation time: 1 hr 16 min 31 sec) 
Heartbeat CPU 0 instructions: 1320000000 cycles: 429848443 heartbeat IPC: 2.65776 cumulative IPC: 2.71 (Simulation time: 1 hr 17 min 3 sec) 
Heartbeat CPU 0 instructions: 1330000001 cycles: 433529579 heartbeat IPC: 2.71655 cumulative IPC: 2.71008 (Simulation time: 1 hr 17 min 37 sec) 
Heartbeat CPU 0 instructions: 1340000000 cycles: 436884653 heartbeat IPC: 2.98056 cumulative IPC: 2.71301 (Simulation time: 1 hr 18 min 17 sec) 
Heartbeat CPU 0 instructions: 1350000001 cycles: 440140588 heartbeat IPC: 3.07131 cumulative IPC: 2.71673 (Simulation time: 1 hr 18 min 55 sec) 
Heartbeat CPU 0 instructions: 1360000000 cycles: 443573452 heartbeat IPC: 2.91302 cumulative IPC: 2.71887 (Simulation time: 1 hr 19 min 31 sec) 
Heartbeat CPU 0 instructions: 1370000000 cycles: 447317899 heartbeat IPC: 2.67062 cumulative IPC: 2.7183 (Simulation time: 1 hr 20 min 8 sec) 
Heartbeat CPU 0 instructions: 1380000004 cycles: 451324439 heartbeat IPC: 2.49592 cumulative IPC: 2.71555 (Simulation time: 1 hr 20 min 46 sec) 
Heartbeat CPU 0 instructions: 1390000000 cycles: 455246707 heartbeat IPC: 2.54954 cumulative IPC: 2.71357 (Simulation time: 1 hr 21 min 24 sec) 
Heartbeat CPU 0 instructions: 1400000001 cycles: 459074232 heartbeat IPC: 2.61265 cumulative IPC: 2.7124 (Simulation time: 1 hr 22 min 2 sec) 
Heartbeat CPU 0 instructions: 1410000001 cycles: 462680531 heartbeat IPC: 2.77293 cumulative IPC: 2.71305 (Simulation time: 1 hr 22 min 38 sec) 
Heartbeat CPU 0 instructions: 1420000002 cycles: 466228909 heartbeat IPC: 2.81819 cumulative IPC: 2.71415 (Simulation time: 1 hr 23 min 13 sec) 
Heartbeat CPU 0 instructions: 1430000002 cycles: 469574070 heartbeat IPC: 2.98939 cumulative IPC: 2.71684 (Simulation time: 1 hr 23 min 47 sec) 
Heartbeat CPU 0 instructions: 1440000002 cycles: 473245752 heartbeat IPC: 2.72355 cumulative IPC: 2.71691 (Simulation time: 1 hr 24 min 20 sec) 
Heartbeat CPU 0 instructions: 1450000004 cycles: 476792386 heartbeat IPC: 2.81958 cumulative IPC: 2.71796 (Simulation time: 1 hr 24 min 55 sec) 
Heartbeat CPU 0 instructions: 1460000002 cycles: 480336687 heartbeat IPC: 2.82143 cumulative IPC: 2.71899 (Simulation time: 1 hr 25 min 29 sec) 
Heartbeat CPU 0 instructions: 1470000004 cycles: 483934298 heartbeat IPC: 2.77962 cumulative IPC: 2.71961 (Simulation time: 1 hr 26 min 2 sec) 
Heartbeat CPU 0 instructions: 1480000004 cycles: 487660309 heartbeat IPC: 2.68384 cumulative IPC: 2.71924 (Simulation time: 1 hr 26 min 35 sec) 
Heartbeat CPU 0 instructions: 1490000004 cycles: 491423706 heartbeat IPC: 2.65717 cumulative IPC: 2.7186 (Simulation time: 1 hr 27 min 9 sec) 
Heartbeat CPU 0 instructions: 1500000001 cycles: 495524081 heartbeat IPC: 2.4388 cumulative IPC: 2.71548 (Simulation time: 1 hr 27 min 43 sec) 
Heartbeat CPU 0 instructions: 1510000000 cycles: 499669796 heartbeat IPC: 2.41213 cumulative IPC: 2.7121 (Simulation time: 1 hr 28 min 16 sec) 
Heartbeat CPU 0 instructions: 1520000004 cycles: 503337156 heartbeat IPC: 2.72676 cumulative IPC: 2.71225 (Simulation time: 1 hr 28 min 50 sec) 
Heartbeat CPU 0 instructions: 1530000000 cycles: 506600199 heartbeat IPC: 3.06462 cumulative IPC: 2.71528 (Simulation time: 1 hr 29 min 29 sec) 
Heartbeat CPU 0 instructions: 1540000000 cycles: 510766689 heartbeat IPC: 2.4001 cumulative IPC: 2.71185 (Simulation time: 1 hr 30 min 6 sec) 
Heartbeat CPU 0 instructions: 1550000001 cycles: 514303380 heartbeat IPC: 2.8275 cumulative IPC: 2.71291 (Simulation time: 1 hr 30 min 38 sec) 
Heartbeat CPU 0 instructions: 1560000002 cycles: 518093077 heartbeat IPC: 2.63873 cumulative IPC: 2.71219 (Simulation time: 1 hr 31 min 17 sec) 
Heartbeat CPU 0 instructions: 1570000004 cycles: 522091182 heartbeat IPC: 2.50119 cumulative IPC: 2.71005 (Simulation time: 1 hr 31 min 51 sec) 
Heartbeat CPU 0 instructions: 1580000002 cycles: 526017105 heartbeat IPC: 2.54717 cumulative IPC: 2.70845 (Simulation time: 1 hr 32 min 24 sec) 
Heartbeat CPU 0 instructions: 1590000002 cycles: 530431800 heartbeat IPC: 2.26516 cumulative IPC: 2.7036 (Simulation time: 1 hr 32 min 59 sec) 
Heartbeat CPU 0 instructions: 1600000004 cycles: 533912182 heartbeat IPC: 2.87325 cumulative IPC: 2.70505 (Simulation time: 1 hr 33 min 28 sec) 
Heartbeat CPU 0 instructions: 1610000000 cycles: 537018150 heartbeat IPC: 3.21961 cumulative IPC: 2.70895 (Simulation time: 1 hr 34 min 25 sec) 
Heartbeat CPU 0 instructions: 1620000004 cycles: 541029451 heartbeat IPC: 2.49296 cumulative IPC: 2.70685 (Simulation time: 1 hr 35 min 20 sec) 
Heartbeat CPU 0 instructions: 1630000000 cycles: 544891070 heartbeat IPC: 2.58959 cumulative IPC: 2.70577 (Simulation time: 1 hr 36 min 10 sec) 
Heartbeat CPU 0 instructions: 1640000003 cycles: 548581068 heartbeat IPC: 2.71003 cumulative IPC: 2.70581 (Simulation time: 1 hr 37 min 9 sec) 
Heartbeat CPU 0 instructions: 1650000002 cycles: 551610011 heartbeat IPC: 3.30148 cumulative IPC: 2.71006 (Simulation time: 1 hr 37 min 59 sec) 
Heartbeat CPU 0 instructions: 1660000000 cycles: 555630534 heartbeat IPC: 2.48724 cumulative IPC: 2.70797 (Simulation time: 1 hr 38 min 51 sec) 
Heartbeat CPU 0 instructions: 1670000000 cycles: 559221871 heartbeat IPC: 2.78448 cumulative IPC: 2.7086 (Simulation time: 1 hr 39 min 26 sec) 
Heartbeat CPU 0 instructions: 1680000001 cycles: 563184127 heartbeat IPC: 2.52381 cumulative IPC: 2.70692 (Simulation time: 1 hr 40 min 0 sec) 
Heartbeat CPU 0 instructions: 1690000000 cycles: 566612809 heartbeat IPC: 2.91657 cumulative IPC: 2.70856 (Simulation time: 1 hr 40 min 36 sec) 
Heartbeat CPU 0 instructions: 1700000000 cycles: 570542912 heartbeat IPC: 2.54446 cumulative IPC: 2.70711 (Simulation time: 1 hr 41 min 16 sec) 
Heartbeat CPU 0 instructions: 1710000002 cycles: 574682389 heartbeat IPC: 2.41576 cumulative IPC: 2.70441 (Simulation time: 1 hr 41 min 50 sec) 
Heartbeat CPU 0 instructions: 1720000004 cycles: 578731898 heartbeat IPC: 2.46944 cumulative IPC: 2.7023 (Simulation time: 1 hr 42 min 27 sec) 
Heartbeat CPU 0 instructions: 1730000004 cycles: 583054274 heartbeat IPC: 2.31354 cumulative IPC: 2.69862 (Simulation time: 1 hr 43 min 6 sec) 
Heartbeat CPU 0 instructions: 1740000003 cycles: 586419886 heartbeat IPC: 2.97123 cumulative IPC: 2.70061 (Simulation time: 1 hr 43 min 38 sec) 
Heartbeat CPU 0 instructions: 1750000003 cycles: 590044268 heartbeat IPC: 2.75909 cumulative IPC: 2.70107 (Simulation time: 1 hr 44 min 14 sec) 
Heartbeat CPU 0 instructions: 1760000000 cycles: 593621697 heartbeat IPC: 2.7953 cumulative IPC: 2.70179 (Simulation time: 1 hr 44 min 47 sec) 
Heartbeat CPU 0 instructions: 1770000000 cycles: 597156153 heartbeat IPC: 2.82929 cumulative IPC: 2.70275 (Simulation time: 1 hr 45 min 22 sec) 
Heartbeat CPU 0 instructions: 1780000003 cycles: 600583124 heartbeat IPC: 2.91803 cumulative IPC: 2.70431 (Simulation time: 1 hr 46 min 0 sec) 
Heartbeat CPU 0 instructions: 1790000001 cycles: 604012164 heartbeat IPC: 2.91627 cumulative IPC: 2.70584 (Simulation time: 1 hr 47 min 3 sec) 
Heartbeat CPU 0 instructions: 1800000000 cycles: 607503235 heartbeat IPC: 2.86445 cumulative IPC: 2.70699 (Simulation time: 1 hr 47 min 58 sec) 
Heartbeat CPU 0 instructions: 1810000003 cycles: 610904695 heartbeat IPC: 2.93991 cumulative IPC: 2.70863 (Simulation time: 1 hr 48 min 53 sec) 
Heartbeat CPU 0 instructions: 1820000001 cycles: 614424526 heartbeat IPC: 2.84104 cumulative IPC: 2.70958 (Simulation time: 1 hr 49 min 57 sec) 
Heartbeat CPU 0 instructions: 1830000003 cycles: 618424549 heartbeat IPC: 2.49999 cumulative IPC: 2.70788 (Simulation time: 1 hr 50 min 37 sec) 
Heartbeat CPU 0 instructions: 1840000004 cycles: 621810998 heartbeat IPC: 2.95295 cumulative IPC: 2.70956 (Simulation time: 1 hr 51 min 6 sec) 
Heartbeat CPU 0 instructions: 1850000004 cycles: 626013987 heartbeat IPC: 2.37926 cumulative IPC: 2.70677 (Simulation time: 1 hr 51 min 41 sec) 
Heartbeat CPU 0 instructions: 1860000001 cycles: 629964036 heartbeat IPC: 2.53161 cumulative IPC: 2.7054 (Simulation time: 1 hr 52 min 16 sec) 
Heartbeat CPU 0 instructions: 1870000000 cycles: 634248274 heartbeat IPC: 2.33414 cumulative IPC: 2.70226 (Simulation time: 1 hr 52 min 52 sec) 
Heartbeat CPU 0 instructions: 1880000001 cycles: 637594414 heartbeat IPC: 2.98852 cumulative IPC: 2.70414 (Simulation time: 1 hr 53 min 30 sec) 
Heartbeat CPU 0 instructions: 1890000003 cycles: 640971771 heartbeat IPC: 2.9609 cumulative IPC: 2.70582 (Simulation time: 1 hr 54 min 14 sec) 
Heartbeat CPU 0 instructions: 1900000003 cycles: 644579202 heartbeat IPC: 2.77206 cumulative IPC: 2.70629 (Simulation time: 1 hr 54 min 54 sec) 
Heartbeat CPU 0 instructions: 1910000003 cycles: 648129850 heartbeat IPC: 2.81639 cumulative IPC: 2.70704 (Simulation time: 1 hr 55 min 35 sec) 
Heartbeat CPU 0 instructions: 1920000001 cycles: 652349099 heartbeat IPC: 2.37009 cumulative IPC: 2.70433 (Simulation time: 1 hr 56 min 28 sec) 
Heartbeat CPU 0 instructions: 1930000000 cycles: 656071213 heartbeat IPC: 2.68665 cumulative IPC: 2.7042 (Simulation time: 1 hr 57 min 4 sec) 
Heartbeat CPU 0 instructions: 1940000001 cycles: 659717272 heartbeat IPC: 2.74269 cumulative IPC: 2.70447 (Simulation time: 1 hr 57 min 49 sec) 
Heartbeat CPU 0 instructions: 1950000003 cycles: 663185891 heartbeat IPC: 2.88299 cumulative IPC: 2.70562 (Simulation time: 1 hr 58 min 26 sec) 
Heartbeat CPU 0 instructions: 1960000002 cycles: 666493161 heartbeat IPC: 3.02364 cumulative IPC: 2.70757 (Simulation time: 1 hr 59 min 1 sec) 
Heartbeat CPU 0 instructions: 1970000004 cycles: 669974403 heartbeat IPC: 2.87254 cumulative IPC: 2.70863 (Simulation time: 1 hr 59 min 34 sec) 
Heartbeat CPU 0 instructions: 1980000000 cycles: 673636807 heartbeat IPC: 2.73045 cumulative IPC: 2.70878 (Simulation time: 2 hr 0 min 5 sec) 
Heartbeat CPU 0 instructions: 1990000000 cycles: 677389660 heartbeat IPC: 2.66464 cumulative IPC: 2.70848 (Simulation time: 2 hr 0 min 38 sec) 
*** Reached end of trace: traces/454.calculix-460B.champsimtrace.xz
Heartbeat CPU 0 instructions: 2000000004 cycles: 681587881 heartbeat IPC: 2.38196 cumulative IPC: 2.706 (Simulation time: 2 hr 1 min 14 sec) 
Finished CPU 0 instructions: 1500000002 cycles: 554322865 cumulative IPC: 2.706 (Simulation time: 2 hr 1 min 14 sec) 

ChampSim completed all CPUs

Region of Interest Statistics

CPU 0 cumulative IPC: 2.706 instructions: 1500000002 cycles: 554322865
cpu0_DTLB TOTAL     ACCESS:  195512489  HIT:  194977875  MISS:     534614
cpu0_DTLB LOAD      ACCESS:  177700116  HIT:  177174102  MISS:     526014
cpu0_DTLB RFO       ACCESS:   17812373  HIT:   17803773  MISS:       8600
cpu0_DTLB PREFETCH  ACCESS:          0  HIT:          0  MISS:          0
cpu0_DTLB WRITEBACK ACCESS:          0  HIT:          0  MISS:          0
cpu0_DTLB TRANSLATION ACCESS:          0  HIT:          0  MISS:          0
cpu0_DTLB PREFETCH  REQUESTED:          0  ISSUED:          0  USEFUL:          0  USELESS:          0
cpu0_DTLB AVERAGE MISS LATENCY: 10.5346 cycles
cpu0_ITLB TOTAL     ACCESS:  101824794  HIT:  101824296  MISS:        498
cpu0_ITLB LOAD      ACCESS:  101824794  HIT:  101824296  MISS:        498
cpu0_ITLB RFO       ACCESS:          0  HIT:          0  MISS:          0
cpu0_ITLB PREFETCH  ACCESS:          0  HIT:          0  MISS:          0
cpu0_ITLB WRITEBACK ACCESS:          0  HIT:          0  MISS:          0
cpu0_ITLB TRANSLATION ACCESS:          0  HIT:          0  MISS:          0
cpu0_ITLB PREFETCH  REQUESTED:          0  ISSUED:          0  USEFUL:          0  USELESS:          0
cpu0_ITLB AVERAGE MISS LATENCY: 12.1948 cycles
cpu0_L1I TOTAL     ACCESS:     426359  HIT:     417176  MISS:       9183
cpu0_L1I LOAD      ACCESS:     426359  HIT:     417176  MISS:       9183
cpu0_L1I RFO       ACCESS:          0  HIT:          0  MISS:          0
cpu0_L1I PREFETCH  ACCESS:          0  HIT:          0  MISS:          0
cpu0_L1I WRITEBACK ACCESS:          0  HIT:          0  MISS:          0
cpu0_L1I TRANSLATION ACCESS:          0  HIT:          0  MISS:          0
cpu0_L1I PREFETCH  REQUESTED:          0  ISSUED:          0  USEFUL:          0  USELESS:          0
cpu0_L1I AVERAGE MISS LATENCY: 59.8935 cycles
cpu0_STLB TOTAL     ACCESS:     535112  HIT:     517392  MISS:      17720
cpu0_STLB LOAD      ACCESS:     526512  HIT:     511853  MISS:      14659
cpu0_STLB RFO       ACCESS:       8600  HIT:       5539  MISS:       3061
cpu0_STLB PREFETCH  ACCESS:          0  HIT:          0  MISS:          0
cpu0_STLB WRITEBACK ACCESS:          0  HIT:          0  MISS:          0
cpu0_STLB TRANSLATION ACCESS:          0  HIT:          0  MISS:          0
cpu0_STLB PREFETCH  REQUESTED:          0  ISSUED:          0  USEFUL:          0  USELESS:          0
cpu0_STLB AVERAGE MISS LATENCY: 46.216 cycles
cpu0_L1D TOTAL     ACCESS:  227905219  HIT:  209325931  MISS:   18579288
cpu0_L1D LOAD      ACCESS:  180869781  HIT:  162706684  MISS:   18163097
cpu0_L1D RFO       ACCESS:   47017871  HIT:   46602410  MISS:     415461
cpu0_L1D PREFETCH  ACCESS:          0  HIT:          0  MISS:          0
cpu0_L1D WRITEBACK ACCESS:          0  HIT:          0  MISS:          0
cpu0_L1D TRANSLATION ACCESS:      17567  HIT:      16837  MISS:        730
cpu0_L1D PREFETCH  REQUESTED:          0  ISSUED:          0  USEFUL:          0  USELESS:          0
cpu0_L1D AVERAGE MISS LATENCY: 32.9557 cycles
cpu0_L2C TOTAL     ACCESS:   23253572  HIT:   17139968  MISS:    6113604
cpu0_L2C LOAD      ACCESS:   18172153  HIT:   12372207  MISS:    5799946
cpu0_L2C RFO       ACCESS:     415459  HIT:     111646  MISS:     303813
cpu0_L2C PREFETCH  ACCESS:          0  HIT:          0  MISS:          0
cpu0_L2C WRITEBACK ACCESS:    4665230  HIT:    4655689  MISS:       9541
cpu0_L2C TRANSLATION ACCESS:        730  HIT:        426  MISS:        304
cpu0_L2C PREFETCH  REQUESTED:          0  ISSUED:          0  USEFUL:          0  USELESS:          0
cpu0_L2C AVERAGE MISS LATENCY: 66.7111 cycles
LLC TOTAL     ACCESS:    7604783  HIT:    6377417  MISS:    1227366
LLC LOAD      ACCESS:    5799939  HIT:    4767040  MISS:    1032899
LLC RFO       ACCESS:     303807  HIT:     110717  MISS:     193090
LLC PREFETCH  ACCESS:          0  HIT:          0  MISS:          0
LLC WRITEBACK ACCESS:    1500733  HIT:    1499441  MISS:       1292
LLC TRANSLATION ACCESS:        304  HIT:        219  MISS:         85
LLC PREFETCH  REQUESTED:          0  ISSUED:          0  USEFUL:          0  USELESS:          0
LLC AVERAGE MISS LATENCY: 227.853 cycles
~~~~~~~~~~Reuse Distance Profiler output~~~~~~~~~~
0	36559808	6332624
1	21665920	9489008
2	18572320	14325488
3	23857920	22261792
4	36641808	35874368
5	79250784	78394752
6	21176224	20545200
7	9683776	8961808
8	4811376	4100704
9	2233984	1534320
10	1591104	1169840
11	1365680	1047760
12	1671776	1417600
13	1103152	955728
14	919344	793616
15	574272	483392
16	427744	354896
17	376272	318256
18	337904	284624
19	373136	325712
20	549152	506288
21	504112	467456
22	703888	669760
23	779248	750560
24	687520	661904
25	585568	557856
26	474192	454928
27	327024	309056
28	227312	209808
29	164400	147808
30	145856	125728
31	127104	107440
32	146128	120704
33	157040	133664
34	161808	135024
35	141632	114272
36	117520	89856
37	125712	67312
38	161440	48912
39	250976	53072
40	227552	41696
41	182224	32512
42	109248	36784
43	84016	32576
44	74144	29872
45	74240	38192
46	72304	41376
47	79648	53792
48	88784	68912
49	81728	63552
50	68064	52272
51	68560	53120
52	65456	53056
53	62192	52016
54	55792	46864
55	53632	45552
56	48480	40176
57	46544	39424
58	42048	37184
59	44592	40576
60	55872	46688
61	52496	45296
62	50112	44096
63	60288	50704
64	209888	136704
66	362560	144704
68	267760	129648
70	333408	108416
72	369296	75760
74	137312	58304
76	61520	54448
78	51296	43392
80	73376	60880
82	79280	73456
84	77008	63376
86	61296	46992
88	47744	43696
90	53616	44880
92	52784	38560
94	64160	29840
96	214816	30144
98	69104	33968
100	51488	40944
102	71600	63888
104	63728	58624
106	134368	130176
108	76800	67232
110	60624	50784
112	55760	50064
114	83232	71232
116	75920	63840
118	55120	48080
120	53584	43008
122	55392	46320
124	53936	49984
126	76976	69984
128	138000	123104
132	129744	114912
136	151376	139488
140	157024	147200
144	178880	163088
148	179392	167616
152	199456	186000
156	200224	182592
160	312128	289776
164	369328	343552
168	356928	330928
172	525952	489712
176	497312	468288
180	415024	379744
184	471056	430736
188	539456	497792
192	652032	598352
196	613456	561392
200	547792	492464
204	715664	657040
208	811776	754208
212	1110944	1038384
216	1352400	1244656
220	1083440	996576
224	1055024	962304
228	971280	897312
232	986736	876144
236	946608	837168
240	842720	743072
244	852288	745216
248	832912	742880
252	806368	725488
256	2042928	1893872
264	1562976	1436016
272	555520	451664
280	1009104	915152
288	391200	310160
296	581856	557936
304	113936	101552
312	496432	460512
320	416016	341424
328	202016	170640
336	782192	748768
344	187696	143488
352	674528	670224
360	296352	236640
368	1336912	1326528
376	306736	241280
384	122064	103792
392	94400	57696
400	211776	129056
408	285248	179104
416	127856	79360
424	10544	7584
432	9856	7072
440	9824	7312
448	9952	7120
456	10048	6736
464	8352	5936
472	8624	6576
480	9824	7472
488	9968	7472
496	9984	7680
504	9600	8192
512	24016	21104
528	27152	24336
544	28304	24784
560	25744	23696
576	25008	22976
592	26208	24288
608	25360	23952
624	27376	25568
640	31872	30704
656	34704	33120
672	29200	28560
688	25488	24864
704	18720	18096
720	20896	20464
736	29504	28928
752	35344	34608
768	42608	42080
784	46416	45840
800	45328	44432
816	42432	41616
832	33312	32720
848	25776	25168
864	18928	18464
880	18000	17472
896	24608	24096
912	26864	26272
928	24272	23568
944	22800	22144
960	17408	17072
976	16048	15440
992	19216	18576
1008	32160	31600
1024	97472	96752
1056	101040	100112
1088	90640	89264
1120	84864	83632
1152	97120	95760
1184	102320	101152
1216	83808	82864
1248	87776	86608
1280	66256	65248
1312	39536	38160
1344	24800	23376
1376	12560	11888
1408	10512	9936
1440	13104	12464
1472	20512	19712
1504	32512	31920
1536	50800	50240
1568	62624	61664
1600	62704	62000
1632	72000	71504
1664	69568	68992
1696	63072	62672
1728	61360	60960
1760	68160	67744
1792	75712	75248
1824	85760	85184
1856	101232	100752
1888	93824	93056
1920	99472	98576
1952	102064	101440
1984	93760	93280
2016	104048	103648
2048	180368	179408
2112	125312	124240
2176	74928	74272
2240	44816	44064
2304	24720	23760
2368	15088	14384
2432	12160	11360
2496	11456	10560
2560	12128	11120
2624	11104	10080
2688	11424	10736
2752	16688	15856
2816	26608	25584
2880	56208	55424
2944	82208	81216
3008	106016	105312
3072	119280	118576
3136	115872	115040
3200	111008	110368
3264	82672	81968
3328	52944	52064
3392	31104	30272
3456	16400	15776
3520	13120	12448
3584	13072	12336
3648	12400	11584
3712	13920	13152
3776	13120	12464
3840	11232	10672
3904	12320	11760
3968	14864	14384
4032	19984	19360
4096	43456	42256
4224	58272	56976
4352	57184	55872
4480	21552	20288
4608	21216	20096
4736	19088	18000
4864	21888	20704
4992	15632	14864
5120	18208	17184
5248	17024	16128
5376	22592	21696
5504	18608	17728
5632	18000	17088
5760	17728	16864
5888	14864	14208
6016	17520	16688
6144	20496	19360
6272	19328	18624
6400	15520	14608
6528	17344	16544
6656	18416	17632
6784	17776	17136
6912	17760	16656
7040	18480	17808
7168	15536	14736
7296	15680	15008
7424	17456	16592
7552	17584	16912
7680	13520	12672
7808	15744	14992
7936	14192	13280
8064	16016	15424
8192	36656	35264
8448	30224	28928
8704	28672	27408
8960	32384	31296
9216	31280	30000
9472	35696	34304
9728	39296	37872
9984	33552	32304
10240	29296	28048
10496	36896	35680
10752	40624	39392
11008	37856	36672
11264	35984	34832
11520	38928	37696
11776	32368	31136
12032	37728	36544
12288	37344	36272
12544	37616	36304
12800	41568	40528
13056	33840	32480
13312	38752	37616
13568	40608	39472
13824	38720	37648
14080	32784	31680
14336	43360	42144
14592	43056	41920
14848	34752	33760
15104	37104	36096
15360	33072	31984
15616	32304	31040
15872	34272	33200
16128	36896	35856
16384	69408	67008
16896	71776	69536
17408	70432	68368
17920	71360	69280
18432	62848	60800
18944	99072	96992
19456	100896	98720
19968	101504	99504
20480	101248	99264
20992	115712	113600
21504	119776	117520
22016	90480	88480
22528	97360	95136
23040	120640	118576
23552	96816	94848
24064	116368	114656
24576	110768	109008
25088	117088	115136
25600	119440	117488
26112	101760	99968
26624	99728	97696
27136	65328	63472
27648	80688	78944
28160	69552	67792
28672	63536	61760
29184	63376	61680
29696	52832	51296
30208	46960	45184
30720	40800	39232
31232	38768	37312
31744	51184	49456
32256	42912	41504
32768	117040	113952
33792	103232	100176
34816	137104	133968
35840	140816	137792
36864	183376	180464
37888	180000	176896
38912	220864	217744
39936	334704	331680
40960	335008	332064
41984	236928	233856
43008	288688	285472
44032	288576	285568
45056	249936	247120
46080	263504	260480
47104	277328	274560
48128	237232	234496
49152	284720	282064
50176	194080	191440
51200	239728	237232
52224	215200	212496
53248	237488	235104
54272	163296	160992
55296	123824	121344
56320	103808	101296
57344	131760	129488
58368	126816	124512
59392	159152	156816
60416	171504	169216
61440	169408	167344
62464	157568	155360
63488	160624	158416
64512	173664	171648
65536	388752	384704
67584	336752	332736
69632	333040	329424
71680	383456	379600
73728	388448	384752
75776	450880	447312
77824	456496	453088
79872	490848	487504
81920	336000	332704
83968	256576	253648
86016	280896	278352
88064	156944	154592
90112	440304	437840
92160	606128	604064
94208	537776	536032
96256	529312	527584
98304	459584	458000
100352	528976	527520
102400	374160	372720
104448	409696	408368
106496	319136	317696
108544	302288	301008
110592	131232	129984
112640	43792	42592
114688	44576	43440
116736	31920	30880
118784	33040	32016
120832	60624	59664
122880	58832	57952
124928	93536	92608
126976	192480	191440
129024	199344	198320
131072	390992	389152
135168	342048	340096
139264	248256	246240
143360	36944	34960
147456	54752	52544
151552	36768	35008
155648	50944	49968
159744	58896	57504
163840	27824	26784
167936	32880	32192
172032	254432	253808
176128	228624	228096
180224	157312	156960
184320	99120	98944
188416	25216	24992
192512	8576	8304
196608	10592	10256
200704	6000	5872
204800	5312	5216
208896	8128	7856
212992	10304	10048
217088	4400	4336
221184	4832	4800
225280	12976	12960
229376	6752	6752
233472	7440	7440
237568	7200	7168
241664	4720	4704
245760	7328	7328
249856	4320	4320
253952	7904	7872
258048	11200	11168
262144	8064	8064
270336	14032	14000
278528	12096	12096
286720	12176	12064
294912	8496	7952
303104	6864	6288
311296	17200	16784
319488	10880	10848
327680	8112	8096
335872	10256	10032
344064	6928	6832
352256	6224	6224
360448	6608	6608
368640	6688	6656
376832	8784	8736
385024	8832	8768
393216	17648	17616
401408	5520	5520
409600	6432	6416
417792	21040	21008
425984	6320	6320
434176	10368	10336
442368	13072	13072
450560	18064	18064
458752	5264	5264
466944	4224	4224
475136	7440	7168
483328	8128	7728
491520	8496	7776
499712	9376	8864
507904	6096	6096
516096	21216	21216
524288	7648	7648
540672	18672	18672
557056	7632	7632
573440	14160	14160
589824	9248	9248
606208	11488	11488
622592	8368	8320
638976	12608	12592
655360	14496	14496
671744	16336	16336
688128	18064	18032
704512	9856	9856
720896	15360	15360
737280	14128	14064
753664	6592	6576
770048	6000	5968
786432	17856	17840
802816	17952	17952
819200	5488	5488
835584	6320	6320
851968	17296	17296
868352	23008	23008
884736	5392	5376
901120	5024	5024
917504	5504	5504
933888	5664	5664
950272	6048	5968
966656	4976	4976
983040	24256	24256
999424	5632	5616
1015808	6704	6688
1032192	11520	11072
1048576	29056	28928
1081344	13664	13600
1114112	6480	6480
1146880	7888	7888
1179648	8544	8544
1212416	10864	10864
1245184	27696	27680
1277952	6720	6720
1310720	13280	13280
1343488	28144	28144
1376256	8816	8816
1409024	18224	18224
1441792	21952	21808
1474560	9232	9216
1507328	22672	22608
1540096	32016	32016
1572864	31152	31136
1605632	4896	4896
1638400	11952	11920
1671168	5136	5104
1703936	9008	9008
1736704	4992	4992
1769472	11152	11120
1802240	20448	20432
1835008	28608	28560
1867776	15376	15376
1900544	36848	36832
1933312	8496	8496
1966080	16608	16592
1998848	16816	16816
2031616	2576	2576
2064384	21456	21424
2097152	2848	2336
2162688	4752	4752
2228224	3056	3056
2293760	2576	2576
2359296	6256	6256
2424832	16080	16064
2490368	20000	19968
2555904	12640	12624
2621440	30896	30048
2686976	8512	7968
2752512	2976	2960
2818048	2992	2992
2883584	3040	3040
2949120	4176	4160
3014656	3728	3712
3080192	3232	3232
3145728	4272	4272
3211264	8512	8464
3276800	3088	2784
3342336	13024	13008
3407872	2896	2880
3473408	2272	2064
3538944	1744	1744
3604480	1616	1440
3670016	1376	1344
3735552	1120	1120
3801088	4704	4496
3866624	9744	9744
3932160	1024	1024
3997696	2560	1584
4063232	2064	2048
4128768	2512	2512
4194304	17936	17936
4325376	5712	5392
4456448	3744	3728
4587520	8320	8320
4718592	6128	5920
4849664	2272	1456
4980736	3328	3328
5111808	2560	2544
5242880	1824	1824
5373952	2336	2304
5505024	3872	3872
5636096	2304	2304
5767168	928	928
5898240	784	784
6029312	848	848
6160384	1056	1056
6291456	576	576
6422528	1136	1136
6553600	848	832
6684672	4048	4032
6815744	960	960
6946816	1840	1840
7077888	1296	1296
7208960	5696	5696
7340032	1168	1168
7471104	3824	3824
7602176	2864	2864
7733248	2112	2112
7864320	3232	3232
7995392	4000	4000
8126464	3600	3600
8257536	1376	1376
8388608	1360	1360
8650752	1488	1488
8912896	4592	4592
9175040	1520	1504
9437184	512	512
9699328	592	592
9961472	960	960
10223616	11200	11200
10485760	960	960
10747904	17216	17216
11010048	24608	24608
11272192	6720	6720
11534336	11376	11376
11796480	5936	5936
12058624	3712	3712
12320768	2864	2864
12582912	624	624
12845056	880	880
13107200	3616	3616
13369344	1280	1280
13631488	2432	2432
13893632	1696	1696
14155776	1312	1312
14417920	1664	1664
14680064	1504	1504
14942208	928	928
15204352	32	32
15466496	16	16
15728640	96	96
15990784	384	32
16252928	32	32
16515072	112	112
16777216	1232	1232
17301504	896	896
17825792	0	0
18350080	0	0
18874368	0	0
19398656	960	0
19922944	608	0
20447232	272	0
20971520	48	48
21495808	112	112
22020096	608	608
22544384	384	384
23068672	864	768
23592960	336	336
24117248	848	0
24641536	336	0
25165824	5856	5856
25690112	1024	1024
26214400	1696	1696
26738688	4064	4048
27262976	18576	18576
27787264	20720	20672
28311552	76624	76624
28835840	35456	35456
29360128	91920	91920
29884416	134080	134080
30408704	111760	111760
30932992	56272	56272
31457280	63904	63904
31981568	9584	9584
32505856	13936	13936
33030144	12976	12976
33554432	9872	9872
34603008	12384	12384
35651584	4816	4816
36700160	31440	31440
37748736	23936	23936
38797312	20624	20624
39845888	9120	9120
40894464	14368	14368
41943040	7056	7056
42991616	34080	34080
44040192	89728	89728
45088768	19232	19232
46137344	59600	59600
47185920	42128	42128
48234496	1152	1152
49283072	0	0
50331648	5952	0
51380224	6496	0
52428800	0	0
53477376	0	0
54525952	0	0
55574528	0	0
56623104	144	144
57671680	144	144
58720256	480	480
59768832	464	464
60817408	144	64
61865984	112	112
62914560	0	0
63963136	0	0
65011712	0	0
66060288	352	352
67108864	464	464
69206016	0	0
71303168	0	0
73400320	0	0
75497472	0	0
77594624	16	16
79691776	0	0
81788928	592	592
83886080	528	528
85983232	0	0
88080384	0	0
90177536	640	640
92274688	400	400
94371840	0	0
96468992	0	0
98566144	0	0
100663296	0	0
102760448	0	0
104857600	0	0
106954752	0	0
109051904	0	0
111149056	0	0
113246208	0	0
115343360	0	0
117440512	0	0
119537664	0	0
121634816	32	32
123731968	0	0
125829120	0	0
127926272	0	0
130023424	0	0
132120576	0	0
134217728	0	0
138412032	0	0
142606336	192	192
146800640	0	0
150994944	16	16
155189248	0	0
159383552	0	0
163577856	0	0
167772160	0	0
171966464	0	0
176160768	0	0
180355072	0	0
184549376	0	0
188743680	0	0
192937984	0	0
197132288	0	0
201326592	0	0
205520896	0	0
209715200	0	0
213909504	0	0
218103808	0	0
222298112	0	0
226492416	0	0
230686720	0	0
234881024	0	0
239075328	0	0
243269632	0	0
247463936	0	0
251658240	0	0
255852544	0	0
260046848	0	0
264241152	0	0
268435456	0	0
276824064	0	0
285212672	0	0
293601280	0	0
301989888	0	0
310378496	0	0
318767104	0	0
327155712	0	0
335544320	0	0
343932928	0	0
352321536	0	0
360710144	0	0
369098752	0	0
377487360	0	0
385875968	0	0
394264576	0	0
402653184	0	0
411041792	0	0
419430400	0	0
427819008	0	0
436207616	0	0
444596224	0	0
452984832	0	0
461373440	0	0
469762048	0	0
478150656	0	0
486539264	0	0
494927872	0	0
503316480	0	0
511705088	0	0
520093696	0	0
528482304	0	0
536870912	0	0
553648128	0	0
570425344	0	0
587202560	0	0
603979776	0	0
620756992	0	0
637534208	0	0
654311424	0	0
671088640	0	0
687865856	0	0
704643072	0	0
721420288	0	0
738197504	0	0
754974720	0	0
771751936	0	0
788529152	0	0
805306368	0	0
822083584	0	0
838860800	0	0
855638016	0	0
872415232	0	0
889192448	0	0
905969664	0	0
922746880	0	0
939524096	0	0
956301312	0	0
973078528	0	0
989855744	0	0
1006632960	0	0
1023410176	0	0
1040187392	0	0
1056964608	0	0
1073741824	0	0
1107296256	0	0
1140850688	0	0
1174405120	0	0
1207959552	0	0
1241513984	0	0
1275068416	0	0
1308622848	0	0
1342177280	0	0
1375731712	0	0
1409286144	0	0
1442840576	0	0
1476395008	0	0
1509949440	0	0
1543503872	0	0
1577058304	0	0
1610612736	0	0
1644167168	0	0
1677721600	0	0
1711276032	0	0
1744830464	0	0
1778384896	0	0
1811939328	0	0
1845493760	0	0
1879048192	0	0
1912602624	0	0
1946157056	0	0
1979711488	0	0
2013265920	0	0
2046820352	0	0
2080374784	0	0
2113929216	0	0
2147483648	0	0
2214592512	0	0
2281701376	0	0
2348810240	0	0
2415919104	0	0
2483027968	0	0
2550136832	0	0
2617245696	0	0
2684354560	0	0
2751463424	0	0
2818572288	0	0
2885681152	0	0
2952790016	0	0
3019898880	0	0
3087007744	0	0
3154116608	0	0
3221225472	0	0
3288334336	0	0
3355443200	0	0
3422552064	0	0
3489660928	0	0
3556769792	0	0
3623878656	0	0
3690987520	0	0
3758096384	0	0
3825205248	0	0
3892314112	0	0
3959422976	0	0
4026531840	0	0
4093640704	0	0
4160749568	0	0
4227858432	0	0
~~~~~~~~~~Reuse Distance Profiler output end~~~~~~~~~~

DRAM Statistics
 CHANNEL 0
 RQ ROW_BUFFER_HIT:     692637  ROW_BUFFER_MISS:     533173
 DBUS AVG_CONGESTED_CYCLE:     3.9076
 WQ ROW_BUFFER_HIT:      59687  ROW_BUFFER_MISS:     241903  FULL:          0


CPU 0 Branch Prediction Accuracy: 97.6915% MPKI: 1.34143 Average ROB Occupancy at Mispredict: 210.573
Branch type MPKI
BRANCH_DIRECT_JUMP: 3.33333e-06
BRANCH_INDIRECT: 0.000400667
BRANCH_CONDITIONAL: 1.34103
BRANCH_DIRECT_CALL: 6.66667e-07
BRANCH_INDIRECT_CALL: 0
BRANCH_RETURN: 6.66667e-07

