
*** ChampSim Multicore Out-of-Order Simulator ***

Warmup Instructions: 500000000
Simulation Instructions: 1500000000
Number of CPUs: 1
Off-chip DRAM Size: 4 GiB Channels: 1 Width: 64-bit Data Rate: 3200 MT/s

VirtualMemory physical capacity: 8588881920 num_ppages: 2096895
VirtualMemory page size: 4096 log2_page_size: 12

CPU 0 runs traces/456.hmmer-327B.champsimtrace.xz
CPU 0 Bimodal branch predictor
Basic BTB sets: 1024 ways: 8 indirect buffer size: 4096 RAS size: 64
Initializing LRU.
Initializing LRU.
Initializing LRU.
Initializing LRU.
Initializing rdLRU.
Initializing LRU.
Initializing LRU.
Heartbeat CPU 0 instructions: 10000001 cycles: 3943022 heartbeat IPC: 2.53613 cumulative IPC: 2.53613 (Simulation time: 0 hr 0 min 58 sec) 
Heartbeat CPU 0 instructions: 20000004 cycles: 7888748 heartbeat IPC: 2.53439 cumulative IPC: 2.53526 (Simulation time: 0 hr 1 min 56 sec) 
Heartbeat CPU 0 instructions: 30000003 cycles: 11822056 heartbeat IPC: 2.54239 cumulative IPC: 2.53763 (Simulation time: 0 hr 2 min 55 sec) 
Heartbeat CPU 0 instructions: 40000001 cycles: 15759269 heartbeat IPC: 2.53987 cumulative IPC: 2.53819 (Simulation time: 0 hr 3 min 55 sec) 
Heartbeat CPU 0 instructions: 50000004 cycles: 19696445 heartbeat IPC: 2.53989 cumulative IPC: 2.53853 (Simulation time: 0 hr 4 min 53 sec) 
Heartbeat CPU 0 instructions: 60000002 cycles: 23633773 heartbeat IPC: 2.53979 cumulative IPC: 2.53874 (Simulation time: 0 hr 6 min 10 sec) 
Heartbeat CPU 0 instructions: 70000003 cycles: 27571077 heartbeat IPC: 2.53981 cumulative IPC: 2.53889 (Simulation time: 0 hr 7 min 26 sec) 
Heartbeat CPU 0 instructions: 80000000 cycles: 31506059 heartbeat IPC: 2.54131 cumulative IPC: 2.53919 (Simulation time: 0 hr 8 min 24 sec) 
Heartbeat CPU 0 instructions: 90000001 cycles: 35444780 heartbeat IPC: 2.5389 cumulative IPC: 2.53916 (Simulation time: 0 hr 9 min 22 sec) 
Heartbeat CPU 0 instructions: 100000001 cycles: 39381514 heartbeat IPC: 2.54018 cumulative IPC: 2.53926 (Simulation time: 0 hr 10 min 31 sec) 
Heartbeat CPU 0 instructions: 110000002 cycles: 43318406 heartbeat IPC: 2.54008 cumulative IPC: 2.53934 (Simulation time: 0 hr 11 min 37 sec) 
Heartbeat CPU 0 instructions: 120000003 cycles: 47257077 heartbeat IPC: 2.53893 cumulative IPC: 2.5393 (Simulation time: 0 hr 12 min 37 sec) 
Heartbeat CPU 0 instructions: 130000003 cycles: 51193489 heartbeat IPC: 2.54038 cumulative IPC: 2.53939 (Simulation time: 0 hr 13 min 36 sec) 
Heartbeat CPU 0 instructions: 140000001 cycles: 55126478 heartbeat IPC: 2.54259 cumulative IPC: 2.53961 (Simulation time: 0 hr 14 min 36 sec) 
Heartbeat CPU 0 instructions: 150000000 cycles: 59065264 heartbeat IPC: 2.53885 cumulative IPC: 2.53956 (Simulation time: 0 hr 15 min 37 sec) 
Heartbeat CPU 0 instructions: 160000003 cycles: 63001894 heartbeat IPC: 2.54024 cumulative IPC: 2.53961 (Simulation time: 0 hr 16 min 45 sec) 
Heartbeat CPU 0 instructions: 170000000 cycles: 66940419 heartbeat IPC: 2.53902 cumulative IPC: 2.53957 (Simulation time: 0 hr 17 min 44 sec) 
Heartbeat CPU 0 instructions: 180000000 cycles: 70854504 heartbeat IPC: 2.55488 cumulative IPC: 2.54042 (Simulation time: 0 hr 18 min 45 sec) 
Heartbeat CPU 0 instructions: 190000000 cycles: 74797275 heartbeat IPC: 2.53629 cumulative IPC: 2.5402 (Simulation time: 0 hr 19 min 51 sec) 
Heartbeat CPU 0 instructions: 200000000 cycles: 78739837 heartbeat IPC: 2.53642 cumulative IPC: 2.54001 (Simulation time: 0 hr 21 min 5 sec) 
Heartbeat CPU 0 instructions: 210000001 cycles: 82682637 heartbeat IPC: 2.53627 cumulative IPC: 2.53983 (Simulation time: 0 hr 22 min 3 sec) 
Heartbeat CPU 0 instructions: 220000003 cycles: 86612308 heartbeat IPC: 2.54474 cumulative IPC: 2.54005 (Simulation time: 0 hr 22 min 59 sec) 
Heartbeat CPU 0 instructions: 230000000 cycles: 90555137 heartbeat IPC: 2.53625 cumulative IPC: 2.53989 (Simulation time: 0 hr 24 min 17 sec) 
Heartbeat CPU 0 instructions: 240000001 cycles: 94489951 heartbeat IPC: 2.54142 cumulative IPC: 2.53995 (Simulation time: 0 hr 25 min 20 sec) 
Heartbeat CPU 0 instructions: 250000001 cycles: 98432731 heartbeat IPC: 2.53628 cumulative IPC: 2.53981 (Simulation time: 0 hr 26 min 19 sec) 
Heartbeat CPU 0 instructions: 260000004 cycles: 102364250 heartbeat IPC: 2.54355 cumulative IPC: 2.53995 (Simulation time: 0 hr 27 min 17 sec) 
Heartbeat CPU 0 instructions: 270000001 cycles: 106293778 heartbeat IPC: 2.54483 cumulative IPC: 2.54013 (Simulation time: 0 hr 28 min 15 sec) 
Heartbeat CPU 0 instructions: 280000001 cycles: 110236322 heartbeat IPC: 2.53643 cumulative IPC: 2.54 (Simulation time: 0 hr 29 min 14 sec) 
Heartbeat CPU 0 instructions: 290000000 cycles: 114167605 heartbeat IPC: 2.5437 cumulative IPC: 2.54013 (Simulation time: 0 hr 30 min 13 sec) 
Heartbeat CPU 0 instructions: 300000003 cycles: 118110172 heartbeat IPC: 2.53642 cumulative IPC: 2.54 (Simulation time: 0 hr 31 min 12 sec) 
Heartbeat CPU 0 instructions: 310000003 cycles: 122041064 heartbeat IPC: 2.54395 cumulative IPC: 2.54013 (Simulation time: 0 hr 32 min 11 sec) 
Heartbeat CPU 0 instructions: 320000002 cycles: 125983834 heartbeat IPC: 2.53629 cumulative IPC: 2.54001 (Simulation time: 0 hr 33 min 12 sec) 
Heartbeat CPU 0 instructions: 330000001 cycles: 129915597 heartbeat IPC: 2.54339 cumulative IPC: 2.54011 (Simulation time: 0 hr 34 min 15 sec) 
Heartbeat CPU 0 instructions: 340000001 cycles: 133858163 heartbeat IPC: 2.53642 cumulative IPC: 2.54 (Simulation time: 0 hr 35 min 21 sec) 
Heartbeat CPU 0 instructions: 350000003 cycles: 137789847 heartbeat IPC: 2.54344 cumulative IPC: 2.5401 (Simulation time: 0 hr 36 min 32 sec) 
Heartbeat CPU 0 instructions: 360000004 cycles: 141732614 heartbeat IPC: 2.53629 cumulative IPC: 2.53999 (Simulation time: 0 hr 37 min 28 sec) 
Heartbeat CPU 0 instructions: 370000000 cycles: 145664354 heartbeat IPC: 2.5434 cumulative IPC: 2.54009 (Simulation time: 0 hr 38 min 33 sec) 
Heartbeat CPU 0 instructions: 380000003 cycles: 149607107 heartbeat IPC: 2.5363 cumulative IPC: 2.53999 (Simulation time: 0 hr 39 min 44 sec) 
Heartbeat CPU 0 instructions: 390000003 cycles: 153537632 heartbeat IPC: 2.54419 cumulative IPC: 2.54009 (Simulation time: 0 hr 40 min 43 sec) 
Heartbeat CPU 0 instructions: 400000004 cycles: 157474880 heartbeat IPC: 2.53985 cumulative IPC: 2.54009 (Simulation time: 0 hr 41 min 40 sec) 
Heartbeat CPU 0 instructions: 410000003 cycles: 161408868 heartbeat IPC: 2.54195 cumulative IPC: 2.54013 (Simulation time: 0 hr 42 min 39 sec) 
Heartbeat CPU 0 instructions: 420000001 cycles: 165348969 heartbeat IPC: 2.53801 cumulative IPC: 2.54008 (Simulation time: 0 hr 43 min 36 sec) 
Heartbeat CPU 0 instructions: 430000002 cycles: 169285313 heartbeat IPC: 2.54043 cumulative IPC: 2.54009 (Simulation time: 0 hr 44 min 35 sec) 
Heartbeat CPU 0 instructions: 440000000 cycles: 173221340 heartbeat IPC: 2.54063 cumulative IPC: 2.5401 (Simulation time: 0 hr 45 min 38 sec) 
Heartbeat CPU 0 instructions: 450000002 cycles: 177151554 heartbeat IPC: 2.54439 cumulative IPC: 2.5402 (Simulation time: 0 hr 46 min 49 sec) 
Heartbeat CPU 0 instructions: 460000004 cycles: 181094155 heartbeat IPC: 2.5364 cumulative IPC: 2.54012 (Simulation time: 0 hr 47 min 54 sec) 
Heartbeat CPU 0 instructions: 470000001 cycles: 185032387 heartbeat IPC: 2.53921 cumulative IPC: 2.5401 (Simulation time: 0 hr 48 min 53 sec) 
Heartbeat CPU 0 instructions: 480000001 cycles: 188964713 heartbeat IPC: 2.54302 cumulative IPC: 2.54016 (Simulation time: 0 hr 49 min 50 sec) 
Heartbeat CPU 0 instructions: 490000002 cycles: 192896946 heartbeat IPC: 2.54308 cumulative IPC: 2.54022 (Simulation time: 0 hr 50 min 49 sec) 
Heartbeat CPU 0 instructions: 500000003 cycles: 196839769 heartbeat IPC: 2.53625 cumulative IPC: 2.54014 (Simulation time: 0 hr 51 min 48 sec) 

Warmup complete CPU 0 instructions: 500000003 cycles: 196839769 (Simulation time: 0 hr 51 min 48 sec) 

Heartbeat CPU 0 instructions: 510000003 cycles: 202056401 heartbeat IPC: 1.91695 cumulative IPC: 1.91695 (Simulation time: 0 hr 53 min 0 sec) 
Heartbeat CPU 0 instructions: 520000000 cycles: 207275494 heartbeat IPC: 1.91604 cumulative IPC: 1.91649 (Simulation time: 0 hr 54 min 13 sec) 
Heartbeat CPU 0 instructions: 530000000 cycles: 212299278 heartbeat IPC: 1.99053 cumulative IPC: 1.94055 (Simulation time: 0 hr 55 min 24 sec) 
Heartbeat CPU 0 instructions: 540000002 cycles: 217215600 heartbeat IPC: 2.03404 cumulative IPC: 1.96311 (Simulation time: 0 hr 56 min 37 sec) 
Heartbeat CPU 0 instructions: 550000001 cycles: 222778178 heartbeat IPC: 1.79773 cumulative IPC: 1.92764 (Simulation time: 0 hr 58 min 13 sec) 
Heartbeat CPU 0 instructions: 560000001 cycles: 228088089 heartbeat IPC: 1.88327 cumulative IPC: 1.9201 (Simulation time: 0 hr 59 min 25 sec) 
Heartbeat CPU 0 instructions: 570000001 cycles: 233208829 heartbeat IPC: 1.95284 cumulative IPC: 1.92471 (Simulation time: 1 hr 0 min 36 sec) 
Heartbeat CPU 0 instructions: 580000001 cycles: 238150073 heartbeat IPC: 2.02378 cumulative IPC: 1.93656 (Simulation time: 1 hr 1 min 47 sec) 
Heartbeat CPU 0 instructions: 590000004 cycles: 242825404 heartbeat IPC: 2.13889 cumulative IPC: 1.95713 (Simulation time: 1 hr 2 min 55 sec) 
Heartbeat CPU 0 instructions: 600000004 cycles: 247646005 heartbeat IPC: 2.07443 cumulative IPC: 1.96826 (Simulation time: 1 hr 4 min 5 sec) 
Heartbeat CPU 0 instructions: 610000002 cycles: 252493950 heartbeat IPC: 2.06273 cumulative IPC: 1.97649 (Simulation time: 1 hr 5 min 13 sec) 
Heartbeat CPU 0 instructions: 620000004 cycles: 257299248 heartbeat IPC: 2.08104 cumulative IPC: 1.9848 (Simulation time: 1 hr 6 min 25 sec) 
Heartbeat CPU 0 instructions: 630000000 cycles: 262191941 heartbeat IPC: 2.04386 cumulative IPC: 1.98922 (Simulation time: 1 hr 7 min 39 sec) 
Heartbeat CPU 0 instructions: 640000004 cycles: 266919848 heartbeat IPC: 2.1151 cumulative IPC: 1.99771 (Simulation time: 1 hr 8 min 55 sec) 
Heartbeat CPU 0 instructions: 650000000 cycles: 271755398 heartbeat IPC: 2.06802 cumulative IPC: 2.00225 (Simulation time: 1 hr 10 min 13 sec) 
Heartbeat CPU 0 instructions: 660000003 cycles: 276591821 heartbeat IPC: 2.06764 cumulative IPC: 2.00622 (Simulation time: 1 hr 11 min 26 sec) 
Heartbeat CPU 0 instructions: 670000000 cycles: 281314131 heartbeat IPC: 2.11761 cumulative IPC: 2.01244 (Simulation time: 1 hr 12 min 40 sec) 
Heartbeat CPU 0 instructions: 680000000 cycles: 285978762 heartbeat IPC: 2.14379 cumulative IPC: 2.01932 (Simulation time: 1 hr 13 min 52 sec) 
Heartbeat CPU 0 instructions: 690000001 cycles: 290608204 heartbeat IPC: 2.16009 cumulative IPC: 2.02627 (Simulation time: 1 hr 15 min 6 sec) 
Heartbeat CPU 0 instructions: 700000004 cycles: 295174977 heartbeat IPC: 2.18973 cumulative IPC: 2.03386 (Simulation time: 1 hr 16 min 36 sec) 
Heartbeat CPU 0 instructions: 710000001 cycles: 300641313 heartbeat IPC: 1.82938 cumulative IPC: 2.02309 (Simulation time: 1 hr 18 min 6 sec) 
Heartbeat CPU 0 instructions: 720000000 cycles: 305887793 heartbeat IPC: 1.90604 cumulative IPC: 2.01746 (Simulation time: 1 hr 19 min 17 sec) 
Heartbeat CPU 0 instructions: 730000002 cycles: 310828009 heartbeat IPC: 2.0242 cumulative IPC: 2.01775 (Simulation time: 1 hr 20 min 40 sec) 
Heartbeat CPU 0 instructions: 740000002 cycles: 316047833 heartbeat IPC: 1.91577 cumulative IPC: 2.01329 (Simulation time: 1 hr 21 min 53 sec) 
Heartbeat CPU 0 instructions: 750000003 cycles: 321486498 heartbeat IPC: 1.83869 cumulative IPC: 2.00567 (Simulation time: 1 hr 23 min 5 sec) 
Heartbeat CPU 0 instructions: 760000004 cycles: 326660244 heartbeat IPC: 1.93284 cumulative IPC: 2.00277 (Simulation time: 1 hr 24 min 19 sec) 
Heartbeat CPU 0 instructions: 770000001 cycles: 332100604 heartbeat IPC: 1.83811 cumulative IPC: 1.99614 (Simulation time: 1 hr 25 min 36 sec) 
Heartbeat CPU 0 instructions: 780000004 cycles: 337379085 heartbeat IPC: 1.89448 cumulative IPC: 1.99233 (Simulation time: 1 hr 26 min 57 sec) 
Heartbeat CPU 0 instructions: 790000003 cycles: 342865072 heartbeat IPC: 1.82283 cumulative IPC: 1.98596 (Simulation time: 1 hr 28 min 24 sec) 
Heartbeat CPU 0 instructions: 800000004 cycles: 348181982 heartbeat IPC: 1.88079 cumulative IPC: 1.98226 (Simulation time: 1 hr 29 min 36 sec) 
Heartbeat CPU 0 instructions: 810000001 cycles: 353515117 heartbeat IPC: 1.87507 cumulative IPC: 1.97861 (Simulation time: 1 hr 30 min 48 sec) 
Heartbeat CPU 0 instructions: 820000002 cycles: 358918360 heartbeat IPC: 1.85074 cumulative IPC: 1.97435 (Simulation time: 1 hr 32 min 22 sec) 
Heartbeat CPU 0 instructions: 830000000 cycles: 364500556 heartbeat IPC: 1.79141 cumulative IPC: 1.96826 (Simulation time: 1 hr 33 min 35 sec) 
Heartbeat CPU 0 instructions: 840000001 cycles: 369009062 heartbeat IPC: 2.21803 cumulative IPC: 1.9748 (Simulation time: 1 hr 34 min 41 sec) 
Heartbeat CPU 0 instructions: 850000001 cycles: 373717645 heartbeat IPC: 2.12378 cumulative IPC: 1.97877 (Simulation time: 1 hr 35 min 48 sec) 
Heartbeat CPU 0 instructions: 860000004 cycles: 377931723 heartbeat IPC: 2.373 cumulative IPC: 1.98794 (Simulation time: 1 hr 36 min 52 sec) 
Heartbeat CPU 0 instructions: 870000001 cycles: 382185078 heartbeat IPC: 2.35108 cumulative IPC: 1.99627 (Simulation time: 1 hr 37 min 57 sec) 
Heartbeat CPU 0 instructions: 880000001 cycles: 386441712 heartbeat IPC: 2.34927 cumulative IPC: 2.0042 (Simulation time: 1 hr 39 min 2 sec) 
Heartbeat CPU 0 instructions: 890000004 cycles: 390792643 heartbeat IPC: 2.29836 cumulative IPC: 2.0108 (Simulation time: 1 hr 40 min 9 sec) 
Heartbeat CPU 0 instructions: 900000004 cycles: 395160434 heartbeat IPC: 2.28949 cumulative IPC: 2.01694 (Simulation time: 1 hr 41 min 14 sec) 
Heartbeat CPU 0 instructions: 910000002 cycles: 399475982 heartbeat IPC: 2.3172 cumulative IPC: 2.02333 (Simulation time: 1 hr 42 min 19 sec) 
Heartbeat CPU 0 instructions: 920000000 cycles: 403812530 heartbeat IPC: 2.30598 cumulative IPC: 2.02925 (Simulation time: 1 hr 43 min 23 sec) 
Heartbeat CPU 0 instructions: 930000002 cycles: 408016588 heartbeat IPC: 2.37865 cumulative IPC: 2.03621 (Simulation time: 1 hr 44 min 30 sec) 
Heartbeat CPU 0 instructions: 940000003 cycles: 412064328 heartbeat IPC: 2.47051 cumulative IPC: 2.04438 (Simulation time: 1 hr 45 min 39 sec) 
Heartbeat CPU 0 instructions: 950000004 cycles: 416355777 heartbeat IPC: 2.33022 cumulative IPC: 2.04996 (Simulation time: 1 hr 46 min 43 sec) 
Heartbeat CPU 0 instructions: 960000001 cycles: 420685260 heartbeat IPC: 2.30974 cumulative IPC: 2.05499 (Simulation time: 1 hr 47 min 48 sec) 
Heartbeat CPU 0 instructions: 970000001 cycles: 424744986 heartbeat IPC: 2.46322 cumulative IPC: 2.06226 (Simulation time: 1 hr 48 min 51 sec) 
Heartbeat CPU 0 instructions: 980000004 cycles: 428782013 heartbeat IPC: 2.47707 cumulative IPC: 2.06948 (Simulation time: 1 hr 49 min 54 sec) 
Heartbeat CPU 0 instructions: 990000000 cycles: 432832764 heartbeat IPC: 2.46868 cumulative IPC: 2.07633 (Simulation time: 1 hr 50 min 57 sec) 
Heartbeat CPU 0 instructions: 1000000003 cycles: 436914316 heartbeat IPC: 2.45005 cumulative IPC: 2.08269 (Simulation time: 1 hr 52 min 0 sec) 
Heartbeat CPU 0 instructions: 1010000002 cycles: 440976864 heartbeat IPC: 2.46151 cumulative IPC: 2.08899 (Simulation time: 1 hr 53 min 10 sec) 
Heartbeat CPU 0 instructions: 1020000001 cycles: 445017106 heartbeat IPC: 2.4751 cumulative IPC: 2.09528 (Simulation time: 1 hr 54 min 14 sec) 
Heartbeat CPU 0 instructions: 1030000001 cycles: 449067329 heartbeat IPC: 2.469 cumulative IPC: 2.10128 (Simulation time: 1 hr 55 min 19 sec) 
Heartbeat CPU 0 instructions: 1040000000 cycles: 453313887 heartbeat IPC: 2.35485 cumulative IPC: 2.10548 (Simulation time: 1 hr 56 min 24 sec) 
Heartbeat CPU 0 instructions: 1050000000 cycles: 457660489 heartbeat IPC: 2.30065 cumulative IPC: 2.10873 (Simulation time: 1 hr 57 min 31 sec) 
Heartbeat CPU 0 instructions: 1060000001 cycles: 461935812 heartbeat IPC: 2.339 cumulative IPC: 2.11244 (Simulation time: 1 hr 58 min 37 sec) 
Heartbeat CPU 0 instructions: 1070000001 cycles: 465964667 heartbeat IPC: 2.48209 cumulative IPC: 2.11798 (Simulation time: 1 hr 59 min 55 sec) 
Heartbeat CPU 0 instructions: 1080000003 cycles: 470046015 heartbeat IPC: 2.45017 cumulative IPC: 2.12294 (Simulation time: 2 hr 1 min 0 sec) 
Heartbeat CPU 0 instructions: 1090000002 cycles: 474109017 heartbeat IPC: 2.46123 cumulative IPC: 2.1279 (Simulation time: 2 hr 2 min 4 sec) 
Heartbeat CPU 0 instructions: 1100000004 cycles: 478146099 heartbeat IPC: 2.47704 cumulative IPC: 2.13291 (Simulation time: 2 hr 3 min 6 sec) 
Heartbeat CPU 0 instructions: 1110000002 cycles: 482283406 heartbeat IPC: 2.41703 cumulative IPC: 2.13702 (Simulation time: 2 hr 4 min 10 sec) 
Heartbeat CPU 0 instructions: 1120000000 cycles: 486375185 heartbeat IPC: 2.44392 cumulative IPC: 2.14136 (Simulation time: 2 hr 5 min 15 sec) 
Heartbeat CPU 0 instructions: 1130000001 cycles: 490414741 heartbeat IPC: 2.47552 cumulative IPC: 2.14596 (Simulation time: 2 hr 6 min 18 sec) 
Heartbeat CPU 0 instructions: 1140000004 cycles: 494458940 heartbeat IPC: 2.47268 cumulative IPC: 2.1504 (Simulation time: 2 hr 7 min 22 sec) 
Heartbeat CPU 0 instructions: 1150000002 cycles: 498504188 heartbeat IPC: 2.47204 cumulative IPC: 2.15471 (Simulation time: 2 hr 8 min 26 sec) 
Heartbeat CPU 0 instructions: 1160000004 cycles: 502858921 heartbeat IPC: 2.29635 cumulative IPC: 2.15673 (Simulation time: 2 hr 9 min 32 sec) 
Heartbeat CPU 0 instructions: 1170000003 cycles: 507127432 heartbeat IPC: 2.34274 cumulative IPC: 2.15929 (Simulation time: 2 hr 10 min 36 sec) 
Heartbeat CPU 0 instructions: 1180000001 cycles: 511178492 heartbeat IPC: 2.46849 cumulative IPC: 2.16327 (Simulation time: 2 hr 11 min 41 sec) 
Heartbeat CPU 0 instructions: 1190000000 cycles: 515397607 heartbeat IPC: 2.37017 cumulative IPC: 2.16601 (Simulation time: 2 hr 12 min 45 sec) 
Heartbeat CPU 0 instructions: 1200000002 cycles: 519877659 heartbeat IPC: 2.23212 cumulative IPC: 2.16693 (Simulation time: 2 hr 13 min 51 sec) 
Heartbeat CPU 0 instructions: 1210000000 cycles: 523932818 heartbeat IPC: 2.46599 cumulative IPC: 2.17064 (Simulation time: 2 hr 14 min 54 sec) 
Heartbeat CPU 0 instructions: 1220000003 cycles: 527997971 heartbeat IPC: 2.45993 cumulative IPC: 2.17419 (Simulation time: 2 hr 15 min 57 sec) 
Heartbeat CPU 0 instructions: 1230000000 cycles: 532070585 heartbeat IPC: 2.45542 cumulative IPC: 2.1776 (Simulation time: 2 hr 17 min 0 sec) 
Heartbeat CPU 0 instructions: 1240000004 cycles: 536143101 heartbeat IPC: 2.45549 cumulative IPC: 2.18094 (Simulation time: 2 hr 18 min 4 sec) 
Heartbeat CPU 0 instructions: 1250000004 cycles: 540616769 heartbeat IPC: 2.2353 cumulative IPC: 2.18165 (Simulation time: 2 hr 19 min 9 sec) 
Heartbeat CPU 0 instructions: 1260000002 cycles: 544940841 heartbeat IPC: 2.31263 cumulative IPC: 2.18327 (Simulation time: 2 hr 20 min 14 sec) 
Heartbeat CPU 0 instructions: 1270000002 cycles: 549085122 heartbeat IPC: 2.41296 cumulative IPC: 2.18598 (Simulation time: 2 hr 21 min 18 sec) 
Heartbeat CPU 0 instructions: 1280000003 cycles: 553135931 heartbeat IPC: 2.46864 cumulative IPC: 2.18919 (Simulation time: 2 hr 22 min 21 sec) 
Heartbeat CPU 0 instructions: 1290000002 cycles: 557179563 heartbeat IPC: 2.47302 cumulative IPC: 2.19238 (Simulation time: 2 hr 23 min 24 sec) 
Heartbeat CPU 0 instructions: 1300000004 cycles: 561215553 heartbeat IPC: 2.47771 cumulative IPC: 2.19554 (Simulation time: 2 hr 24 min 26 sec) 
Heartbeat CPU 0 instructions: 1310000001 cycles: 565295865 heartbeat IPC: 2.45079 cumulative IPC: 2.19836 (Simulation time: 2 hr 25 min 29 sec) 
Heartbeat CPU 0 instructions: 1320000000 cycles: 569329182 heartbeat IPC: 2.47935 cumulative IPC: 2.2014 (Simulation time: 2 hr 26 min 32 sec) 
Heartbeat CPU 0 instructions: 1330000004 cycles: 573385202 heartbeat IPC: 2.46547 cumulative IPC: 2.20425 (Simulation time: 2 hr 27 min 35 sec) 
Heartbeat CPU 0 instructions: 1340000003 cycles: 577446583 heartbeat IPC: 2.46222 cumulative IPC: 2.207 (Simulation time: 2 hr 28 min 38 sec) 
Heartbeat CPU 0 instructions: 1350000004 cycles: 581501624 heartbeat IPC: 2.46607 cumulative IPC: 2.20973 (Simulation time: 2 hr 29 min 41 sec) 
Heartbeat CPU 0 instructions: 1360000001 cycles: 585540200 heartbeat IPC: 2.47612 cumulative IPC: 2.2125 (Simulation time: 2 hr 30 min 44 sec) 
Heartbeat CPU 0 instructions: 1370000002 cycles: 589583797 heartbeat IPC: 2.47305 cumulative IPC: 2.21518 (Simulation time: 2 hr 31 min 47 sec) 
Heartbeat CPU 0 instructions: 1380000004 cycles: 593900413 heartbeat IPC: 2.31663 cumulative IPC: 2.21629 (Simulation time: 2 hr 32 min 52 sec) 
Heartbeat CPU 0 instructions: 1390000001 cycles: 598277504 heartbeat IPC: 2.28462 cumulative IPC: 2.21703 (Simulation time: 2 hr 33 min 57 sec) 
Heartbeat CPU 0 instructions: 1400000001 cycles: 602441149 heartbeat IPC: 2.40174 cumulative IPC: 2.21893 (Simulation time: 2 hr 35 min 1 sec) 
Heartbeat CPU 0 instructions: 1410000001 cycles: 606478049 heartbeat IPC: 2.47715 cumulative IPC: 2.22147 (Simulation time: 2 hr 36 min 4 sec) 
Heartbeat CPU 0 instructions: 1420000001 cycles: 610521140 heartbeat IPC: 2.47336 cumulative IPC: 2.22393 (Simulation time: 2 hr 37 min 7 sec) 
Heartbeat CPU 0 instructions: 1430000003 cycles: 614589203 heartbeat IPC: 2.45817 cumulative IPC: 2.22621 (Simulation time: 2 hr 38 min 10 sec) 
Heartbeat CPU 0 instructions: 1440000001 cycles: 618623653 heartbeat IPC: 2.47865 cumulative IPC: 2.22863 (Simulation time: 2 hr 39 min 13 sec) 
Heartbeat CPU 0 instructions: 1450000002 cycles: 622671315 heartbeat IPC: 2.47056 cumulative IPC: 2.23093 (Simulation time: 2 hr 40 min 16 sec) 
Heartbeat CPU 0 instructions: 1460000003 cycles: 626757008 heartbeat IPC: 2.44757 cumulative IPC: 2.23299 (Simulation time: 2 hr 41 min 19 sec) 
Heartbeat CPU 0 instructions: 1470000000 cycles: 631242798 heartbeat IPC: 2.22926 cumulative IPC: 2.23295 (Simulation time: 2 hr 42 min 24 sec) 
Heartbeat CPU 0 instructions: 1480000000 cycles: 635278164 heartbeat IPC: 2.47809 cumulative IPC: 2.23521 (Simulation time: 2 hr 43 min 28 sec) 
Heartbeat CPU 0 instructions: 1490000000 cycles: 639312244 heartbeat IPC: 2.47888 cumulative IPC: 2.23743 (Simulation time: 2 hr 44 min 30 sec) 
Heartbeat CPU 0 instructions: 1500000000 cycles: 643347537 heartbeat IPC: 2.47813 cumulative IPC: 2.2396 (Simulation time: 2 hr 45 min 33 sec) 
Heartbeat CPU 0 instructions: 1510000000 cycles: 647391088 heartbeat IPC: 2.47307 cumulative IPC: 2.2417 (Simulation time: 2 hr 46 min 36 sec) 
Heartbeat CPU 0 instructions: 1520000003 cycles: 651480560 heartbeat IPC: 2.4453 cumulative IPC: 2.24353 (Simulation time: 2 hr 47 min 39 sec) 
Heartbeat CPU 0 instructions: 1530000002 cycles: 655754876 heartbeat IPC: 2.33956 cumulative IPC: 2.24442 (Simulation time: 2 hr 48 min 43 sec) 
Heartbeat CPU 0 instructions: 1540000002 cycles: 659956668 heartbeat IPC: 2.37994 cumulative IPC: 2.24565 (Simulation time: 2 hr 49 min 47 sec) 
Heartbeat CPU 0 instructions: 1550000003 cycles: 663996647 heartbeat IPC: 2.47526 cumulative IPC: 2.24764 (Simulation time: 2 hr 50 min 50 sec) 
Heartbeat CPU 0 instructions: 1560000000 cycles: 668046527 heartbeat IPC: 2.46921 cumulative IPC: 2.24954 (Simulation time: 2 hr 51 min 53 sec) 
Heartbeat CPU 0 instructions: 1570000003 cycles: 672075751 heartbeat IPC: 2.48187 cumulative IPC: 2.25151 (Simulation time: 2 hr 52 min 56 sec) 
Heartbeat CPU 0 instructions: 1580000001 cycles: 676112365 heartbeat IPC: 2.47732 cumulative IPC: 2.25341 (Simulation time: 2 hr 53 min 58 sec) 
Heartbeat CPU 0 instructions: 1590000004 cycles: 680147515 heartbeat IPC: 2.47822 cumulative IPC: 2.25529 (Simulation time: 2 hr 55 min 1 sec) 
Heartbeat CPU 0 instructions: 1600000003 cycles: 684227046 heartbeat IPC: 2.45126 cumulative IPC: 2.25693 (Simulation time: 2 hr 56 min 4 sec) 
Heartbeat CPU 0 instructions: 1610000002 cycles: 688279871 heartbeat IPC: 2.46741 cumulative IPC: 2.25867 (Simulation time: 2 hr 57 min 7 sec) 
Heartbeat CPU 0 instructions: 1620000002 cycles: 692334757 heartbeat IPC: 2.46616 cumulative IPC: 2.26037 (Simulation time: 2 hr 58 min 10 sec) 
Heartbeat CPU 0 instructions: 1630000003 cycles: 696387593 heartbeat IPC: 2.46741 cumulative IPC: 2.26205 (Simulation time: 2 hr 59 min 14 sec) 
Heartbeat CPU 0 instructions: 1640000004 cycles: 700643011 heartbeat IPC: 2.34995 cumulative IPC: 2.26279 (Simulation time: 3 hr 0 min 18 sec) 
Heartbeat CPU 0 instructions: 1650000004 cycles: 704670282 heartbeat IPC: 2.48307 cumulative IPC: 2.26453 (Simulation time: 3 hr 1 min 20 sec) 
Heartbeat CPU 0 instructions: 1660000003 cycles: 708719720 heartbeat IPC: 2.46948 cumulative IPC: 2.26616 (Simulation time: 3 hr 2 min 23 sec) 
Heartbeat CPU 0 instructions: 1670000001 cycles: 712762850 heartbeat IPC: 2.47333 cumulative IPC: 2.26778 (Simulation time: 3 hr 3 min 26 sec) 
Heartbeat CPU 0 instructions: 1680000002 cycles: 716785730 heartbeat IPC: 2.48578 cumulative IPC: 2.26947 (Simulation time: 3 hr 4 min 28 sec) 
Heartbeat CPU 0 instructions: 1690000000 cycles: 720801606 heartbeat IPC: 2.49012 cumulative IPC: 2.27116 (Simulation time: 3 hr 5 min 31 sec) 
Heartbeat CPU 0 instructions: 1700000000 cycles: 724841782 heartbeat IPC: 2.47514 cumulative IPC: 2.27272 (Simulation time: 3 hr 6 min 34 sec) 
Heartbeat CPU 0 instructions: 1710000000 cycles: 728859681 heartbeat IPC: 2.48886 cumulative IPC: 2.27435 (Simulation time: 3 hr 7 min 37 sec) 
Heartbeat CPU 0 instructions: 1720000002 cycles: 732878487 heartbeat IPC: 2.4883 cumulative IPC: 2.27595 (Simulation time: 3 hr 8 min 40 sec) 
Heartbeat CPU 0 instructions: 1730000004 cycles: 736920257 heartbeat IPC: 2.47416 cumulative IPC: 2.27744 (Simulation time: 3 hr 9 min 43 sec) 
Heartbeat CPU 0 instructions: 1740000003 cycles: 740930974 heartbeat IPC: 2.49332 cumulative IPC: 2.27903 (Simulation time: 3 hr 10 min 46 sec) 
Heartbeat CPU 0 instructions: 1750000004 cycles: 744968358 heartbeat IPC: 2.47685 cumulative IPC: 2.28049 (Simulation time: 3 hr 11 min 49 sec) 
Heartbeat CPU 0 instructions: 1760000001 cycles: 748981434 heartbeat IPC: 2.49185 cumulative IPC: 2.28202 (Simulation time: 3 hr 12 min 52 sec) 
Heartbeat CPU 0 instructions: 1770000000 cycles: 752998705 heartbeat IPC: 2.48925 cumulative IPC: 2.28352 (Simulation time: 3 hr 13 min 55 sec) 
Heartbeat CPU 0 instructions: 1780000001 cycles: 757064449 heartbeat IPC: 2.45957 cumulative IPC: 2.2848 (Simulation time: 3 hr 14 min 58 sec) 
Heartbeat CPU 0 instructions: 1790000003 cycles: 761084251 heartbeat IPC: 2.48769 cumulative IPC: 2.28624 (Simulation time: 3 hr 16 min 0 sec) 
Heartbeat CPU 0 instructions: 1800000002 cycles: 765125190 heartbeat IPC: 2.47467 cumulative IPC: 2.28758 (Simulation time: 3 hr 17 min 4 sec) 
Heartbeat CPU 0 instructions: 1810000000 cycles: 769140394 heartbeat IPC: 2.49053 cumulative IPC: 2.28901 (Simulation time: 3 hr 18 min 7 sec) 
Heartbeat CPU 0 instructions: 1820000004 cycles: 773156710 heartbeat IPC: 2.48985 cumulative IPC: 2.29041 (Simulation time: 3 hr 19 min 10 sec) 
Heartbeat CPU 0 instructions: 1830000000 cycles: 777204462 heartbeat IPC: 2.47051 cumulative IPC: 2.29166 (Simulation time: 3 hr 20 min 12 sec) 
Heartbeat CPU 0 instructions: 1840000002 cycles: 781249849 heartbeat IPC: 2.47195 cumulative IPC: 2.29291 (Simulation time: 3 hr 21 min 15 sec) 
Heartbeat CPU 0 instructions: 1850000001 cycles: 785276153 heartbeat IPC: 2.48367 cumulative IPC: 2.29422 (Simulation time: 3 hr 22 min 19 sec) 
Heartbeat CPU 0 instructions: 1860000002 cycles: 789290916 heartbeat IPC: 2.49081 cumulative IPC: 2.29555 (Simulation time: 3 hr 23 min 22 sec) 
Heartbeat CPU 0 instructions: 1870000001 cycles: 793331891 heartbeat IPC: 2.47465 cumulative IPC: 2.29676 (Simulation time: 3 hr 24 min 24 sec) 
Heartbeat CPU 0 instructions: 1880000001 cycles: 797349913 heartbeat IPC: 2.48879 cumulative IPC: 2.29805 (Simulation time: 3 hr 25 min 27 sec) 
Heartbeat CPU 0 instructions: 1890000004 cycles: 801379624 heartbeat IPC: 2.48157 cumulative IPC: 2.29927 (Simulation time: 3 hr 26 min 30 sec) 
Heartbeat CPU 0 instructions: 1900000002 cycles: 805413031 heartbeat IPC: 2.47929 cumulative IPC: 2.30046 (Simulation time: 3 hr 27 min 34 sec) 
Heartbeat CPU 0 instructions: 1910000002 cycles: 809481998 heartbeat IPC: 2.45763 cumulative IPC: 2.30151 (Simulation time: 3 hr 28 min 37 sec) 
Heartbeat CPU 0 instructions: 1920000001 cycles: 813499719 heartbeat IPC: 2.48897 cumulative IPC: 2.30273 (Simulation time: 3 hr 29 min 40 sec) 
Heartbeat CPU 0 instructions: 1930000004 cycles: 817514737 heartbeat IPC: 2.49065 cumulative IPC: 2.30394 (Simulation time: 3 hr 30 min 43 sec) 
Heartbeat CPU 0 instructions: 1940000003 cycles: 821557367 heartbeat IPC: 2.47364 cumulative IPC: 2.30504 (Simulation time: 3 hr 31 min 45 sec) 
Heartbeat CPU 0 instructions: 1950000000 cycles: 825574542 heartbeat IPC: 2.48931 cumulative IPC: 2.30622 (Simulation time: 3 hr 32 min 48 sec) 
Heartbeat CPU 0 instructions: 1960000002 cycles: 829615021 heartbeat IPC: 2.47495 cumulative IPC: 2.3073 (Simulation time: 3 hr 33 min 50 sec) 
Heartbeat CPU 0 instructions: 1970000000 cycles: 833629969 heartbeat IPC: 2.49069 cumulative IPC: 2.30845 (Simulation time: 3 hr 34 min 53 sec) 
Heartbeat CPU 0 instructions: 1980000000 cycles: 837664397 heartbeat IPC: 2.47867 cumulative IPC: 2.30952 (Simulation time: 3 hr 35 min 56 sec) 
Heartbeat CPU 0 instructions: 1990000004 cycles: 841680789 heartbeat IPC: 2.4898 cumulative IPC: 2.31065 (Simulation time: 3 hr 36 min 59 sec) 
*** Reached end of trace: traces/456.hmmer-327B.champsimtrace.xz
Heartbeat CPU 0 instructions: 2000000002 cycles: 845720392 heartbeat IPC: 2.47549 cumulative IPC: 2.31167 (Simulation time: 3 hr 38 min 2 sec) 
Finished CPU 0 instructions: 1500000004 cycles: 648880801 cumulative IPC: 2.31167 (Simulation time: 3 hr 38 min 2 sec) 

ChampSim completed all CPUs

Region of Interest Statistics

CPU 0 cumulative IPC: 2.31167 instructions: 1500000004 cycles: 648880801
cpu0_DTLB TOTAL     ACCESS:  545187581  HIT:  545092370  MISS:      95211
cpu0_DTLB LOAD      ACCESS:  434408240  HIT:  434377436  MISS:      30804
cpu0_DTLB RFO       ACCESS:  110779341  HIT:  110714934  MISS:      64407
cpu0_DTLB PREFETCH  ACCESS:          0  HIT:          0  MISS:          0
cpu0_DTLB WRITEBACK ACCESS:          0  HIT:          0  MISS:          0
cpu0_DTLB TRANSLATION ACCESS:          0  HIT:          0  MISS:          0
cpu0_DTLB PREFETCH  REQUESTED:          0  ISSUED:          0  USEFUL:          0  USELESS:          0
cpu0_DTLB AVERAGE MISS LATENCY: 10.2711 cycles
cpu0_ITLB TOTAL     ACCESS:   25418014  HIT:   25418014  MISS:          0
cpu0_ITLB LOAD      ACCESS:   25418014  HIT:   25418014  MISS:          0
cpu0_ITLB RFO       ACCESS:          0  HIT:          0  MISS:          0
cpu0_ITLB PREFETCH  ACCESS:          0  HIT:          0  MISS:          0
cpu0_ITLB WRITEBACK ACCESS:          0  HIT:          0  MISS:          0
cpu0_ITLB TRANSLATION ACCESS:          0  HIT:          0  MISS:          0
cpu0_ITLB PREFETCH  REQUESTED:          0  ISSUED:          0  USEFUL:          0  USELESS:          0
cpu0_ITLB AVERAGE MISS LATENCY: -nan cycles
cpu0_L1I TOTAL     ACCESS:    1140345  HIT:    1140345  MISS:          0
cpu0_L1I LOAD      ACCESS:    1140345  HIT:    1140345  MISS:          0
cpu0_L1I RFO       ACCESS:          0  HIT:          0  MISS:          0
cpu0_L1I PREFETCH  ACCESS:          0  HIT:          0  MISS:          0
cpu0_L1I WRITEBACK ACCESS:          0  HIT:          0  MISS:          0
cpu0_L1I TRANSLATION ACCESS:          0  HIT:          0  MISS:          0
cpu0_L1I PREFETCH  REQUESTED:          0  ISSUED:          0  USEFUL:          0  USELESS:          0
cpu0_L1I AVERAGE MISS LATENCY: -nan cycles
cpu0_STLB TOTAL     ACCESS:      95211  HIT:      94166  MISS:       1045
cpu0_STLB LOAD      ACCESS:      30804  HIT:      30702  MISS:        102
cpu0_STLB RFO       ACCESS:      64407  HIT:      63464  MISS:        943
cpu0_STLB PREFETCH  ACCESS:          0  HIT:          0  MISS:          0
cpu0_STLB WRITEBACK ACCESS:          0  HIT:          0  MISS:          0
cpu0_STLB TRANSLATION ACCESS:          0  HIT:          0  MISS:          0
cpu0_STLB PREFETCH  REQUESTED:          0  ISSUED:          0  USEFUL:          0  USELESS:          0
cpu0_STLB AVERAGE MISS LATENCY: 115.376 cycles
cpu0_L1D TOTAL     ACCESS:  510894615  HIT:  504759819  MISS:    6134796
cpu0_L1D LOAD      ACCESS:  446597454  HIT:  444456427  MISS:    2141027
cpu0_L1D RFO       ACCESS:   64296388  HIT:   60302875  MISS:    3993513
cpu0_L1D PREFETCH  ACCESS:          0  HIT:          0  MISS:          0
cpu0_L1D WRITEBACK ACCESS:          0  HIT:          0  MISS:          0
cpu0_L1D TRANSLATION ACCESS:        773  HIT:        517  MISS:        256
cpu0_L1D PREFETCH  REQUESTED:          0  ISSUED:          0  USEFUL:          0  USELESS:          0
cpu0_L1D AVERAGE MISS LATENCY: 310.118 cycles
cpu0_L2C TOTAL     ACCESS:   10100808  HIT:    5933785  MISS:    4167023
cpu0_L2C LOAD      ACCESS:    2141027  HIT:    1950614  MISS:     190413
cpu0_L2C RFO       ACCESS:    3993513  HIT:      17505  MISS:    3976008
cpu0_L2C PREFETCH  ACCESS:          0  HIT:          0  MISS:          0
cpu0_L2C WRITEBACK ACCESS:    3966012  HIT:    3965470  MISS:        542
cpu0_L2C TRANSLATION ACCESS:        256  HIT:        196  MISS:         60
cpu0_L2C PREFETCH  REQUESTED:          0  ISSUED:          0  USEFUL:          0  USELESS:          0
cpu0_L2C AVERAGE MISS LATENCY: 440.358 cycles
LLC TOTAL     ACCESS:    8122146  HIT:    6616925  MISS:    1505221
LLC LOAD      ACCESS:     190412  HIT:     146727  MISS:      43685
LLC RFO       ACCESS:    3975976  HIT:    2514758  MISS:    1461218
LLC PREFETCH  ACCESS:          0  HIT:          0  MISS:          0
LLC WRITEBACK ACCESS:    3955698  HIT:    3955426  MISS:        272
LLC TRANSLATION ACCESS:         60  HIT:         14  MISS:         46
LLC PREFETCH  REQUESTED:          0  ISSUED:          0  USEFUL:          0  USELESS:          0
LLC AVERAGE MISS LATENCY: 1160.95 cycles
~~~~~~~~~~Reuse Distance Profiler output~~~~~~~~~~
0	8749088	4456288
1	26576624	19648112
2	22479072	16453008
3	26633600	15527456
4	25879984	18447264
5	25993840	18417904
6	24987808	18815744
7	24018848	21269072
8	25104048	22031088
9	25887360	22579232
10	24198272	20884288
11	20274400	17166928
12	15470576	12682192
13	14068016	11457040
14	14060704	11714544
15	15304704	12969440
16	17541360	15277104
17	19004656	16531088
18	22960304	19941120
19	23187232	20468464
20	23716704	20066288
21	23987088	21622800
22	21816896	19915504
23	22012224	20142384
24	18081264	16231232
25	16338304	13866976
26	15471920	12656880
27	15998624	12443280
28	15260160	12576176
29	18069072	16047280
30	18574464	17434256
31	16810864	15806864
32	15264880	14798064
33	17325536	16959232
34	12556816	12239104
35	6080608	5809472
36	2536240	2271232
37	1619424	1361264
38	1126448	880592
39	969056	721120
40	848848	582816
41	782352	522000
42	681280	436256
43	653552	403840
44	603536	383904
45	530912	339904
46	418608	257952
47	355104	226208
48	303392	209488
49	274240	190496
50	223040	161136
51	190272	135648
52	169264	127360
53	150592	114256
54	131424	101488
55	121920	96192
56	111696	89232
57	97872	78432
58	90800	73264
59	73184	60576
60	63872	52224
61	59472	49904
62	56464	46048
63	50208	44688
64	109760	98272
66	89664	77728
68	86784	78416
70	80016	71520
72	64784	60032
74	49568	44464
76	31664	28352
78	24528	20448
80	17104	14960
82	9744	8176
84	7728	6272
86	6304	4960
88	6416	5120
90	5344	4176
92	7824	6848
94	6304	4816
96	4432	3120
98	4512	3168
100	2432	1424
102	3600	2432
104	2368	1392
106	1808	1168
108	3264	2512
110	2064	1200
112	2064	1168
114	2880	2208
116	2592	2096
118	1536	1072
120	1648	1232
122	2144	1120
124	1824	1136
126	2176	768
128	3872	2224
132	4000	1856
136	2608	1952
140	3856	3232
144	2480	1808
148	3456	2928
152	5440	4528
156	7664	7088
160	11984	11296
164	8976	8112
168	5152	4208
172	4624	2688
176	8512	6816
180	12224	7392
184	6224	4192
188	8704	6992
192	10944	8144
196	7792	6608
200	11216	10576
204	10656	9440
208	19104	17472
212	23792	21856
216	26272	22752
220	43856	31008
224	46400	37792
228	62048	47680
232	65984	56912
236	60688	55696
240	51920	50608
244	57120	56656
248	47296	46384
252	38480	37888
256	73984	70320
264	139440	105344
272	143792	125680
280	132272	125664
288	62800	61936
296	40992	40240
304	13568	13184
312	8528	8464
320	4064	4016
328	9408	9344
336	3824	3712
344	2336	1536
352	2784	1632
360	3008	2784
368	7776	7072
376	21040	18160
384	38880	33808
392	36112	31824
400	27040	23536
408	26272	23952
416	21856	21024
424	25136	24224
432	27184	23696
440	30704	22048
448	31008	19328
456	26128	16832
464	32464	22112
472	30720	24704
480	34320	30672
488	26400	23856
496	14896	14128
504	10592	10384
512	11200	11008
528	10224	10176
544	7648	7600
560	9920	9904
576	9632	9568
592	7008	6944
608	9280	9248
624	9568	9520
640	6400	6368
656	8752	8704
672	4176	4128
688	5360	5216
704	9728	9648
720	8992	8976
736	4656	4624
752	10320	10272
768	10848	10832
784	5568	5552
800	5632	5600
816	5184	5184
832	5792	5744
848	7536	7536
864	9104	9104
880	7344	7344
896	8960	8928
912	9120	9072
928	7568	7520
944	8992	8960
960	7968	7952
976	6176	6128
992	8528	8496
1008	11200	11184
1024	14016	13952
1056	11392	11312
1088	16624	16592
1120	15808	15776
1152	17808	17792
1184	12144	12112
1216	13520	13472
1248	16480	16480
1280	14592	14528
1312	17184	17136
1344	16544	16432
1376	16224	16192
1408	13488	13440
1440	11840	11776
1472	16656	16640
1504	16592	16512
1536	17984	17952
1568	11456	11376
1600	14160	14112
1632	16656	16656
1664	16032	15984
1696	15552	15504
1728	14768	14736
1760	17696	17680
1792	14512	14448
1824	14384	14336
1856	16912	16816
1888	16048	16016
1920	17760	17760
1952	12416	12384
1984	14704	14624
2016	15184	15104
2048	30512	30432
2112	34560	34304
2176	29264	28960
2240	33744	33616
2304	29024	28912
2368	27456	27376
2432	29952	29872
2496	32640	32560
2560	27328	27136
2624	30512	30176
2688	28992	28768
2752	29488	29392
2816	30000	29888
2880	30976	30832
2944	27520	27360
3008	31376	31184
3072	30064	29936
3136	31664	31504
3200	30656	30528
3264	32320	32128
3328	30192	30080
3392	33744	33712
3456	32272	32208
3520	31136	31104
3584	32064	32048
3648	29712	29696
3712	32528	32512
3776	33360	33344
3840	30736	30736
3904	29408	29408
3968	30832	30832
4032	30816	30768
4096	63504	63456
4224	60352	60160
4352	68928	68896
4480	69552	69504
4608	81088	80976
4736	100016	99952
4864	111232	111168
4992	118560	118512
5120	111280	110944
5248	107552	107392
5376	105536	105392
5504	101296	101216
5632	97520	97408
5760	97152	97136
5888	149056	148992
6016	350416	350400
6144	1678944	1678848
6272	452224	452176
6400	501200	501136
6528	510000	509872
6656	610096	610032
6784	750416	750368
6912	659760	659728
7040	1529520	1529472
7168	4878896	4878864
7296	2161168	2161152
7424	275040	274992
7552	736160	736064
7680	113856	113792
7808	13776	13744
7936	13568	13552
8064	12544	12496
8192	24848	24736
8448	24704	24528
8704	41664	41584
8960	62272	62128
9216	787840	787776
9472	1692624	1692400
9728	1705504	1705440
9984	624928	624752
10240	153296	153248
10496	89312	89296
10752	2272	2224
11008	5440	5424
11264	704	656
11520	864	832
11776	1136	1056
12032	912	832
12288	1632	1600
12544	22464	22320
12800	11712	11664
13056	7536	7440
13312	5888	5856
13568	7632	7600
13824	8752	8720
14080	9184	9152
14336	11472	11424
14592	25904	25872
14848	72784	72736
15104	18944	18912
15360	3664	3664
15616	1024	992
15872	416	400
16128	496	480
16384	1120	1104
16896	704	672
17408	1072	1040
17920	1232	1232
18432	1296	1248
18944	35584	35552
19456	36080	36080
19968	34560	34528
20480	17856	17808
20992	11728	11728
21504	14016	14000
22016	37888	37888
22528	69600	69568
23040	3072	3072
23552	1056	1040
24064	912	896
24576	992	960
25088	4336	4320
25600	25984	25952
26112	7680	7664
26624	6144	6144
27136	6656	6640
27648	7232	7232
28160	6864	6832
28672	9056	9056
29184	23792	23792
29696	61344	61328
30208	75616	75600
30720	10448	10432
31232	1760	1760
31744	9712	9712
32256	11824	11824
32768	7888	7888
33792	8144	8128
34816	8512	8496
35840	11344	11328
36864	41040	40976
37888	51552	51552
38912	23920	23920
39936	41968	41968
40960	13728	13712
41984	7696	7616
43008	8176	8112
44032	15680	15648
45056	77008	76992
46080	6944	6928
47104	5856	5856
48128	5920	5920
49152	17712	17712
50176	33360	33360
51200	29184	29184
52224	45936	45936
53248	24608	24592
54272	4416	4400
55296	4608	4592
56320	4576	4576
57344	11616	11600
58368	15344	15344
59392	33424	33408
60416	72384	72352
61440	7904	7904
62464	3696	3696
63488	4736	4736
64512	12624	12608
65536	21312	21280
67584	56128	56128
69632	48272	48256
71680	16912	16896
73728	27984	27936
75776	44752	44752
77824	16448	16448
79872	38432	38432
81920	54832	54816
83968	19344	19344
86016	8928	8912
88064	15168	15152
90112	81456	81424
92160	10896	10848
94208	8064	7968
96256	21040	20960
98304	39104	39088
100352	28960	28944
102400	17552	17536
104448	22144	22112
106496	26000	25984
108544	11424	11424
110592	31008	30976
112640	36560	36560
114688	10384	10368
116736	9776	9664
118784	15904	15888
120832	47968	47936
122880	11936	11920
124928	7696	7664
126976	13440	13408
129024	29952	29920
131072	31568	31536
135168	38752	38656
139264	37568	37472
143360	34960	34912
147456	23520	23488
151552	43072	43040
155648	21280	21216
159744	40160	40096
163840	24400	24256
167936	26240	26208
172032	41376	41328
176128	12064	12032
180224	41040	40992
184320	9776	9744
188416	25184	25136
192512	21168	21056
196608	18944	18880
200704	22704	22672
204800	17920	17840
208896	16768	16672
212992	23936	23888
217088	12048	11936
221184	23872	23872
225280	16496	16464
229376	14176	14112
233472	24656	23328
237568	7792	7664
241664	24512	24464
245760	8048	7616
249856	18656	17440
253952	13008	12912
258048	10784	10624
262144	26176	26096
270336	25024	24912
278528	21120	21072
286720	18016	17792
294912	20240	20096
303104	22128	22032
311296	19072	18944
319488	18016	17904
327680	13872	13776
335872	14336	14128
344064	18256	18080
352256	16528	16480
360448	13408	13200
368640	13360	13248
376832	11776	11696
385024	11888	11776
393216	12304	12256
401408	10592	10464
409600	8928	8816
417792	8192	8096
425984	9376	9232
434176	9088	8912
442368	8544	8400
450560	8160	8080
458752	8000	7824
466944	7488	7344
475136	7872	7808
483328	7504	7376
491520	6000	5984
499712	5824	5664
507904	6608	6512
516096	4976	4864
524288	11728	11456
540672	9424	9168
557056	10512	10288
573440	9296	9136
589824	7088	6864
606208	8432	8128
622592	7488	7264
638976	6448	6256
655360	6096	5840
671744	6576	6272
688128	5456	5136
704512	4464	4096
720896	5264	4864
737280	4720	4544
753664	3872	3632
770048	4144	3920
786432	3856	3552
802816	3792	3376
819200	3856	3648
835584	3488	3264
851968	3024	2608
868352	3360	3104
884736	3904	3632
901120	6064	2688
917504	6000	2544
933888	2528	2320
950272	2224	1840
966656	2832	2576
983040	2064	1856
999424	2000	1632
1015808	1792	1616
1032192	2272	2048
1048576	4384	3696
1081344	4416	3760
1114112	10208	3488
1146880	5616	4128
1179648	6032	3664
1212416	4736	2496
1245184	12464	3040
1277952	12704	2960
1310720	4688	2240
1343488	4080	1936
1376256	3088	2352
1409024	3008	2176
1441792	3344	2720
1474560	2704	1936
1507328	3040	2096
1540096	3136	2192
1572864	14656	2160
1605632	2768	1856
1638400	2704	1728
1671168	2224	1520
1703936	2720	1840
1736704	2528	1760
1769472	2800	1792
1802240	4320	1328
1835008	4256	1808
1867776	3600	1056
1900544	3808	1360
1933312	4128	1712
1966080	4288	1792
1998848	4112	1568
2031616	3792	1600
2064384	3808	1472
2097152	5072	2464
2162688	20176	2320
2228224	4256	2944
2293760	39728	2704
2359296	62656	2704
2424832	137216	4224
2490368	356720	4528
2555904	128032	2544
2621440	34592	2048
2686976	41952	1760
2752512	2848	1776
2818048	7792	1648
2883584	33696	2000
2949120	76832	2512
3014656	154816	2992
3080192	234336	3456
3145728	339248	2992
3211264	302480	3072
3276800	181888	2304
3342336	118656	1408
3407872	57616	1728
3473408	86896	1136
3538944	11328	736
3604480	1056	736
3670016	24272	864
3735552	39920	896
3801088	27504	512
3866624	10784	640
3932160	3696	752
3997696	43120	800
4063232	54304	976
4128768	67648	1440
4194304	164240	2176
4325376	146352	1280
4456448	94384	2096
4587520	227536	1952
4718592	179568	2864
4849664	146160	848
4980736	27120	784
5111808	19872	512
5242880	2864	768
5373952	63088	560
5505024	30944	560
5636096	79040	832
5767168	21584	432
5898240	66960	864
6029312	62560	368
6160384	5696	256
6291456	5712	320
6422528	6064	224
6553600	5808	128
6684672	4368	176
6815744	15024	480
6946816	81936	624
7077888	30688	320
7208960	752	144
7340032	1152	192
7471104	2256	208
7602176	560	224
7733248	11888	304
7864320	54672	480
7995392	16224	448
8126464	816	496
8257536	58928	1040
8388608	139280	416
8650752	400	240
8912896	126704	1104
9175040	14928	224
9437184	17888	272
9699328	51120	576
9961472	4640	320
10223616	1568	256
10485760	56512	544
10747904	7200	144
11010048	6992	112
11272192	80	48
11534336	25568	240
11796480	912	32
12058624	1552	64
12320768	128	48
12582912	16528	320
12845056	3248	32
13107200	1088	32
13369344	48	32
13631488	1104	48
13893632	20304	176
14155776	752	64
14417920	464	48
14680064	18128	128
14942208	448	80
15204352	144	80
15466496	144	64
15728640	128	32
15990784	9744	48
16252928	25920	448
16515072	32752	192
16777216	3008	64
17301504	6640	48
17825792	15600	144
18350080	15120	96
18874368	304	16
19398656	3248	64
19922944	1968	80
20447232	192	112
20971520	5984	48
21495808	5056	80
22020096	2480	32
22544384	80	48
23068672	80	16
23592960	8176	64
24117248	6784	16
24641536	272	0
25165824	2064	32
25690112	8704	32
26214400	1152	0
26738688	1360	0
27262976	1920	32
27787264	4048	64
28311552	5744	16
28835840	64	16
29360128	544	32
29884416	112	32
30408704	5968	32
30932992	48	0
31457280	80	0
31981568	48	0
32505856	5440	64
33030144	64	32
33554432	7280	144
34603008	96	0
35651584	7312	48
36700160	48	16
37748736	6896	32
38797312	48	16
39845888	48	16
40894464	2208	32
41943040	6032	48
42991616	608	16
44040192	128	64
45088768	16	0
46137344	64	0
47185920	3472	32
48234496	208	64
49283072	7456	16
50331648	6656	96
51380224	16	0
52428800	64	0
53477376	32	32
54525952	16	16
55574528	1232	32
56623104	48	16
57671680	0	0
58720256	0	0
59768832	96	16
60817408	16	0
61865984	0	0
62914560	688	0
63963136	16	0
65011712	96	0
66060288	16	16
67108864	96	16
69206016	2480	32
71303168	80	16
73400320	16	0
75497472	864	0
77594624	48	48
79691776	15760	80
81788928	80	0
83886080	896	32
85983232	64	16
88080384	112	48
90177536	128	64
92274688	416	96
94371840	448	16
96468992	256	32
98566144	16	16
100663296	0	0
102760448	64	0
104857600	64	0
106954752	32	16
109051904	0	0
111149056	64	16
113246208	4112	0
115343360	64	16
117440512	16	16
119537664	0	0
121634816	320	16
123731968	32	16
125829120	0	0
127926272	16	16
130023424	32	16
132120576	512	0
134217728	64	32
138412032	5520	32
142606336	48	32
146800640	240	64
150994944	16	0
155189248	8160	64
159383552	32	0
163577856	0	0
167772160	0	0
171966464	0	0
176160768	16	16
180355072	0	0
184549376	0	0
188743680	16	0
192937984	0	0
197132288	0	0
201326592	32	0
205520896	0	0
209715200	0	0
213909504	32	16
218103808	0	0
222298112	16	16
226492416	16	0
230686720	160	32
234881024	24048	160
239075328	16	0
243269632	0	0
247463936	0	0
251658240	0	0
255852544	0	0
260046848	0	0
264241152	0	0
268435456	0	0
276824064	16	16
285212672	16	16
293601280	0	0
301989888	0	0
310378496	0	0
318767104	0	0
327155712	272	32
335544320	0	0
343932928	16	16
352321536	16	16
360710144	0	0
369098752	16	16
377487360	0	0
385875968	0	0
394264576	0	0
402653184	0	0
411041792	0	0
419430400	0	0
427819008	0	0
436207616	0	0
444596224	0	0
452984832	0	0
461373440	64	0
469762048	0	0
478150656	0	0
486539264	0	0
494927872	0	0
503316480	0	0
511705088	0	0
520093696	0	0
528482304	0	0
536870912	0	0
553648128	0	0
570425344	0	0
587202560	0	0
603979776	0	0
620756992	0	0
637534208	16	16
654311424	0	0
671088640	0	0
687865856	0	0
704643072	0	0
721420288	0	0
738197504	0	0
754974720	0	0
771751936	0	0
788529152	0	0
805306368	0	0
822083584	0	0
838860800	0	0
855638016	0	0
872415232	0	0
889192448	0	0
905969664	0	0
922746880	0	0
939524096	0	0
956301312	0	0
973078528	0	0
989855744	0	0
1006632960	0	0
1023410176	0	0
1040187392	0	0
1056964608	0	0
1073741824	0	0
1107296256	0	0
1140850688	0	0
1174405120	0	0
1207959552	0	0
1241513984	0	0
1275068416	0	0
1308622848	0	0
1342177280	0	0
1375731712	0	0
1409286144	0	0
1442840576	0	0
1476395008	0	0
1509949440	0	0
1543503872	0	0
1577058304	0	0
1610612736	0	0
1644167168	0	0
1677721600	0	0
1711276032	0	0
1744830464	0	0
1778384896	0	0
1811939328	0	0
1845493760	0	0
1879048192	0	0
1912602624	0	0
1946157056	0	0
1979711488	0	0
2013265920	0	0
2046820352	0	0
2080374784	0	0
2113929216	0	0
2147483648	0	0
2214592512	0	0
2281701376	0	0
2348810240	0	0
2415919104	0	0
2483027968	0	0
2550136832	0	0
2617245696	0	0
2684354560	0	0
2751463424	0	0
2818572288	0	0
2885681152	0	0
2952790016	0	0
3019898880	0	0
3087007744	0	0
3154116608	0	0
3221225472	0	0
3288334336	0	0
3355443200	0	0
3422552064	0	0
3489660928	0	0
3556769792	0	0
3623878656	0	0
3690987520	0	0
3758096384	0	0
3825205248	0	0
3892314112	0	0
3959422976	0	0
4026531840	0	0
4093640704	0	0
4160749568	0	0
4227858432	0	0
~~~~~~~~~~Reuse Distance Profiler output end~~~~~~~~~~

DRAM Statistics
 CHANNEL 0
 RQ ROW_BUFFER_HIT:      22601  ROW_BUFFER_MISS:    1482213
 DBUS AVG_CONGESTED_CYCLE:    3.99434
 WQ ROW_BUFFER_HIT:      68389  ROW_BUFFER_MISS:    1367241  FULL:          0


CPU 0 Branch Prediction Accuracy: 99.1727% MPKI: 0.365767 Average ROB Occupancy at Mispredict: 156.083
Branch type MPKI
BRANCH_DIRECT_JUMP: 6.66667e-07
BRANCH_INDIRECT: 0.000418667
BRANCH_CONDITIONAL: 0.365343
BRANCH_DIRECT_CALL: 0
BRANCH_INDIRECT_CALL: 4e-06
BRANCH_RETURN: 0

