
*** ChampSim Multicore Out-of-Order Simulator ***

Warmup Instructions: 500000000
Simulation Instructions: 1500000000
Number of CPUs: 1
Off-chip DRAM Size: 4 GiB Channels: 1 Width: 64-bit Data Rate: 3200 MT/s

VirtualMemory physical capacity: 8588881920 num_ppages: 2096895
VirtualMemory page size: 4096 log2_page_size: 12

CPU 0 runs traces/456.hmmer-191B.champsimtrace.xz
CPU 0 Bimodal branch predictor
Basic BTB sets: 1024 ways: 8 indirect buffer size: 4096 RAS size: 64
Initializing LRU.
Initializing LRU.
Initializing LRU.
Initializing LRU.
Initializing rdLRU.
Initializing LRU.
Initializing LRU.
Heartbeat CPU 0 instructions: 10000003 cycles: 3942970 heartbeat IPC: 2.53616 cumulative IPC: 2.53616 (Simulation time: 0 hr 0 min 59 sec) 
Heartbeat CPU 0 instructions: 20000000 cycles: 7885499 heartbeat IPC: 2.53644 cumulative IPC: 2.5363 (Simulation time: 0 hr 1 min 57 sec) 
Heartbeat CPU 0 instructions: 30000001 cycles: 11822946 heartbeat IPC: 2.53972 cumulative IPC: 2.53744 (Simulation time: 0 hr 2 min 58 sec) 
Heartbeat CPU 0 instructions: 40000004 cycles: 15765712 heartbeat IPC: 2.53629 cumulative IPC: 2.53715 (Simulation time: 0 hr 4 min 7 sec) 
Heartbeat CPU 0 instructions: 50000004 cycles: 19699986 heartbeat IPC: 2.54176 cumulative IPC: 2.53807 (Simulation time: 0 hr 5 min 22 sec) 
Heartbeat CPU 0 instructions: 60000004 cycles: 23638138 heartbeat IPC: 2.53926 cumulative IPC: 2.53827 (Simulation time: 0 hr 6 min 36 sec) 
Heartbeat CPU 0 instructions: 70000003 cycles: 27573253 heartbeat IPC: 2.54122 cumulative IPC: 2.53869 (Simulation time: 0 hr 7 min 39 sec) 
Heartbeat CPU 0 instructions: 80000001 cycles: 31511947 heartbeat IPC: 2.53891 cumulative IPC: 2.53872 (Simulation time: 0 hr 8 min 39 sec) 
Heartbeat CPU 0 instructions: 90000002 cycles: 35450825 heartbeat IPC: 2.53879 cumulative IPC: 2.53873 (Simulation time: 0 hr 9 min 38 sec) 
Heartbeat CPU 0 instructions: 100000001 cycles: 39381678 heartbeat IPC: 2.54398 cumulative IPC: 2.53925 (Simulation time: 0 hr 10 min 37 sec) 
Heartbeat CPU 0 instructions: 110000002 cycles: 43320309 heartbeat IPC: 2.53895 cumulative IPC: 2.53922 (Simulation time: 0 hr 11 min 42 sec) 
Heartbeat CPU 0 instructions: 120000004 cycles: 47260911 heartbeat IPC: 2.53768 cumulative IPC: 2.5391 (Simulation time: 0 hr 13 min 2 sec) 
Heartbeat CPU 0 instructions: 130000003 cycles: 51197375 heartbeat IPC: 2.54035 cumulative IPC: 2.53919 (Simulation time: 0 hr 14 min 1 sec) 
Heartbeat CPU 0 instructions: 140000000 cycles: 55133316 heartbeat IPC: 2.54069 cumulative IPC: 2.5393 (Simulation time: 0 hr 15 min 5 sec) 
Heartbeat CPU 0 instructions: 150000002 cycles: 59068598 heartbeat IPC: 2.54111 cumulative IPC: 2.53942 (Simulation time: 0 hr 16 min 5 sec) 
Heartbeat CPU 0 instructions: 160000000 cycles: 63007893 heartbeat IPC: 2.53852 cumulative IPC: 2.53936 (Simulation time: 0 hr 17 min 9 sec) 
Heartbeat CPU 0 instructions: 170000000 cycles: 66940005 heartbeat IPC: 2.54316 cumulative IPC: 2.53959 (Simulation time: 0 hr 18 min 23 sec) 
Heartbeat CPU 0 instructions: 180000004 cycles: 70878775 heartbeat IPC: 2.53886 cumulative IPC: 2.53955 (Simulation time: 0 hr 19 min 41 sec) 
Heartbeat CPU 0 instructions: 190000000 cycles: 74816198 heartbeat IPC: 2.53973 cumulative IPC: 2.53956 (Simulation time: 0 hr 20 min 43 sec) 
Heartbeat CPU 0 instructions: 200000002 cycles: 78743018 heartbeat IPC: 2.54659 cumulative IPC: 2.53991 (Simulation time: 0 hr 21 min 43 sec) 
Heartbeat CPU 0 instructions: 210000004 cycles: 82685570 heartbeat IPC: 2.53643 cumulative IPC: 2.53974 (Simulation time: 0 hr 22 min 47 sec) 
Heartbeat CPU 0 instructions: 220000001 cycles: 86624859 heartbeat IPC: 2.53853 cumulative IPC: 2.53969 (Simulation time: 0 hr 24 min 1 sec) 
Heartbeat CPU 0 instructions: 230000002 cycles: 90561765 heartbeat IPC: 2.54007 cumulative IPC: 2.5397 (Simulation time: 0 hr 25 min 21 sec) 
Heartbeat CPU 0 instructions: 240000004 cycles: 94499178 heartbeat IPC: 2.53974 cumulative IPC: 2.5397 (Simulation time: 0 hr 26 min 30 sec) 
Heartbeat CPU 0 instructions: 250000004 cycles: 98436471 heartbeat IPC: 2.53982 cumulative IPC: 2.53971 (Simulation time: 0 hr 27 min 35 sec) 
Heartbeat CPU 0 instructions: 260000004 cycles: 102373593 heartbeat IPC: 2.53993 cumulative IPC: 2.53972 (Simulation time: 0 hr 29 min 1 sec) 
Heartbeat CPU 0 instructions: 270000000 cycles: 106300903 heartbeat IPC: 2.54627 cumulative IPC: 2.53996 (Simulation time: 0 hr 30 min 5 sec) 
Heartbeat CPU 0 instructions: 280000001 cycles: 110243711 heartbeat IPC: 2.53626 cumulative IPC: 2.53983 (Simulation time: 0 hr 31 min 18 sec) 
Heartbeat CPU 0 instructions: 290000004 cycles: 114182882 heartbeat IPC: 2.53861 cumulative IPC: 2.53979 (Simulation time: 0 hr 32 min 32 sec) 
Heartbeat CPU 0 instructions: 300000002 cycles: 118119907 heartbeat IPC: 2.53999 cumulative IPC: 2.53979 (Simulation time: 0 hr 33 min 46 sec) 
Heartbeat CPU 0 instructions: 310000001 cycles: 122057435 heartbeat IPC: 2.53966 cumulative IPC: 2.53979 (Simulation time: 0 hr 34 min 48 sec) 
Heartbeat CPU 0 instructions: 320000000 cycles: 125979530 heartbeat IPC: 2.54966 cumulative IPC: 2.5401 (Simulation time: 0 hr 35 min 49 sec) 
Heartbeat CPU 0 instructions: 330000000 cycles: 129922343 heartbeat IPC: 2.53626 cumulative IPC: 2.53998 (Simulation time: 0 hr 36 min 50 sec) 
Heartbeat CPU 0 instructions: 340000000 cycles: 133861096 heartbeat IPC: 2.53887 cumulative IPC: 2.53995 (Simulation time: 0 hr 37 min 48 sec) 
Heartbeat CPU 0 instructions: 350000003 cycles: 137798798 heartbeat IPC: 2.53955 cumulative IPC: 2.53994 (Simulation time: 0 hr 38 min 47 sec) 
Heartbeat CPU 0 instructions: 360000001 cycles: 141735779 heartbeat IPC: 2.54002 cumulative IPC: 2.53994 (Simulation time: 0 hr 39 min 57 sec) 
Heartbeat CPU 0 instructions: 370000000 cycles: 145672602 heartbeat IPC: 2.54012 cumulative IPC: 2.53994 (Simulation time: 0 hr 41 min 6 sec) 
Heartbeat CPU 0 instructions: 380000000 cycles: 149608919 heartbeat IPC: 2.54045 cumulative IPC: 2.53996 (Simulation time: 0 hr 42 min 17 sec) 
Heartbeat CPU 0 instructions: 390000001 cycles: 153545366 heartbeat IPC: 2.54036 cumulative IPC: 2.53997 (Simulation time: 0 hr 43 min 23 sec) 
Heartbeat CPU 0 instructions: 400000004 cycles: 157480828 heartbeat IPC: 2.541 cumulative IPC: 2.53999 (Simulation time: 0 hr 44 min 21 sec) 
Heartbeat CPU 0 instructions: 410000001 cycles: 161423457 heartbeat IPC: 2.53638 cumulative IPC: 2.5399 (Simulation time: 0 hr 45 min 21 sec) 
Heartbeat CPU 0 instructions: 420000003 cycles: 165357198 heartbeat IPC: 2.54211 cumulative IPC: 2.53996 (Simulation time: 0 hr 46 min 29 sec) 
Heartbeat CPU 0 instructions: 430000002 cycles: 169295204 heartbeat IPC: 2.53936 cumulative IPC: 2.53994 (Simulation time: 0 hr 47 min 27 sec) 
Heartbeat CPU 0 instructions: 440000003 cycles: 173232739 heartbeat IPC: 2.53966 cumulative IPC: 2.53994 (Simulation time: 0 hr 48 min 24 sec) 
Heartbeat CPU 0 instructions: 450000000 cycles: 177168016 heartbeat IPC: 2.54112 cumulative IPC: 2.53996 (Simulation time: 0 hr 49 min 21 sec) 
Heartbeat CPU 0 instructions: 460000002 cycles: 181103003 heartbeat IPC: 2.54131 cumulative IPC: 2.53999 (Simulation time: 0 hr 50 min 19 sec) 
Heartbeat CPU 0 instructions: 470000002 cycles: 185040433 heartbeat IPC: 2.53973 cumulative IPC: 2.53999 (Simulation time: 0 hr 51 min 16 sec) 
Heartbeat CPU 0 instructions: 480000004 cycles: 188977862 heartbeat IPC: 2.53973 cumulative IPC: 2.53998 (Simulation time: 0 hr 52 min 14 sec) 
Heartbeat CPU 0 instructions: 490000004 cycles: 192915290 heartbeat IPC: 2.53973 cumulative IPC: 2.53997 (Simulation time: 0 hr 53 min 12 sec) 
Heartbeat CPU 0 instructions: 500000004 cycles: 196853789 heartbeat IPC: 2.53904 cumulative IPC: 2.53996 (Simulation time: 0 hr 54 min 9 sec) 

Warmup complete CPU 0 instructions: 500000004 cycles: 196853789 (Simulation time: 0 hr 54 min 9 sec) 

Heartbeat CPU 0 instructions: 510000000 cycles: 200895670 heartbeat IPC: 2.47409 cumulative IPC: 2.47409 (Simulation time: 0 hr 55 min 15 sec) 
Heartbeat CPU 0 instructions: 520000004 cycles: 205157937 heartbeat IPC: 2.34617 cumulative IPC: 2.40843 (Simulation time: 0 hr 56 min 25 sec) 
Heartbeat CPU 0 instructions: 530000004 cycles: 209238795 heartbeat IPC: 2.45046 cumulative IPC: 2.42228 (Simulation time: 0 hr 57 min 34 sec) 
Heartbeat CPU 0 instructions: 540000002 cycles: 213288449 heartbeat IPC: 2.46935 cumulative IPC: 2.43388 (Simulation time: 0 hr 58 min 41 sec) 
Heartbeat CPU 0 instructions: 550000004 cycles: 217350128 heartbeat IPC: 2.46204 cumulative IPC: 2.43946 (Simulation time: 0 hr 59 min 50 sec) 
Heartbeat CPU 0 instructions: 560000000 cycles: 221387071 heartbeat IPC: 2.47712 cumulative IPC: 2.44566 (Simulation time: 1 hr 0 min 58 sec) 
Heartbeat CPU 0 instructions: 570000000 cycles: 225437694 heartbeat IPC: 2.46876 cumulative IPC: 2.44893 (Simulation time: 1 hr 2 min 30 sec) 
Heartbeat CPU 0 instructions: 580000001 cycles: 229552151 heartbeat IPC: 2.43045 cumulative IPC: 2.44661 (Simulation time: 1 hr 3 min 50 sec) 
Heartbeat CPU 0 instructions: 590000001 cycles: 233694048 heartbeat IPC: 2.41435 cumulative IPC: 2.44298 (Simulation time: 1 hr 5 min 5 sec) 
Heartbeat CPU 0 instructions: 600000001 cycles: 237755800 heartbeat IPC: 2.46199 cumulative IPC: 2.44487 (Simulation time: 1 hr 6 min 25 sec) 
Heartbeat CPU 0 instructions: 610000000 cycles: 241815141 heartbeat IPC: 2.46345 cumulative IPC: 2.44655 (Simulation time: 1 hr 7 min 32 sec) 
Heartbeat CPU 0 instructions: 620000003 cycles: 245885870 heartbeat IPC: 2.45656 cumulative IPC: 2.44738 (Simulation time: 1 hr 8 min 38 sec) 
Heartbeat CPU 0 instructions: 630000001 cycles: 249947500 heartbeat IPC: 2.46207 cumulative IPC: 2.4485 (Simulation time: 1 hr 9 min 45 sec) 
Heartbeat CPU 0 instructions: 640000004 cycles: 254013298 heartbeat IPC: 2.45954 cumulative IPC: 2.44929 (Simulation time: 1 hr 10 min 52 sec) 
Heartbeat CPU 0 instructions: 650000000 cycles: 258078717 heartbeat IPC: 2.45977 cumulative IPC: 2.44998 (Simulation time: 1 hr 11 min 57 sec) 
Heartbeat CPU 0 instructions: 660000004 cycles: 262126861 heartbeat IPC: 2.47027 cumulative IPC: 2.45124 (Simulation time: 1 hr 13 min 2 sec) 
Heartbeat CPU 0 instructions: 670000000 cycles: 266164024 heartbeat IPC: 2.47699 cumulative IPC: 2.45274 (Simulation time: 1 hr 14 min 17 sec) 
Heartbeat CPU 0 instructions: 680000001 cycles: 270222083 heartbeat IPC: 2.46423 cumulative IPC: 2.45338 (Simulation time: 1 hr 15 min 49 sec) 
Heartbeat CPU 0 instructions: 690000000 cycles: 274299691 heartbeat IPC: 2.45242 cumulative IPC: 2.45333 (Simulation time: 1 hr 16 min 54 sec) 
Heartbeat CPU 0 instructions: 700000003 cycles: 278468768 heartbeat IPC: 2.39861 cumulative IPC: 2.45053 (Simulation time: 1 hr 17 min 59 sec) 
Heartbeat CPU 0 instructions: 710000003 cycles: 282629811 heartbeat IPC: 2.40324 cumulative IPC: 2.44824 (Simulation time: 1 hr 19 min 4 sec) 
Heartbeat CPU 0 instructions: 720000003 cycles: 286701458 heartbeat IPC: 2.45601 cumulative IPC: 2.44859 (Simulation time: 1 hr 20 min 8 sec) 
Heartbeat CPU 0 instructions: 730000001 cycles: 290768944 heartbeat IPC: 2.45852 cumulative IPC: 2.44902 (Simulation time: 1 hr 21 min 12 sec) 
Heartbeat CPU 0 instructions: 740000004 cycles: 294827581 heartbeat IPC: 2.46388 cumulative IPC: 2.44963 (Simulation time: 1 hr 22 min 16 sec) 
Heartbeat CPU 0 instructions: 750000001 cycles: 298892477 heartbeat IPC: 2.46009 cumulative IPC: 2.45005 (Simulation time: 1 hr 23 min 21 sec) 
Heartbeat CPU 0 instructions: 760000002 cycles: 302960362 heartbeat IPC: 2.45828 cumulative IPC: 2.45037 (Simulation time: 1 hr 24 min 26 sec) 
Heartbeat CPU 0 instructions: 770000000 cycles: 307003618 heartbeat IPC: 2.47325 cumulative IPC: 2.45121 (Simulation time: 1 hr 25 min 31 sec) 
Heartbeat CPU 0 instructions: 780000003 cycles: 311035368 heartbeat IPC: 2.48031 cumulative IPC: 2.45223 (Simulation time: 1 hr 26 min 36 sec) 
Heartbeat CPU 0 instructions: 790000002 cycles: 315092034 heartbeat IPC: 2.46508 cumulative IPC: 2.45268 (Simulation time: 1 hr 27 min 55 sec) 
Heartbeat CPU 0 instructions: 800000004 cycles: 319152090 heartbeat IPC: 2.46302 cumulative IPC: 2.45302 (Simulation time: 1 hr 29 min 0 sec) 
Heartbeat CPU 0 instructions: 810000003 cycles: 323213325 heartbeat IPC: 2.4623 cumulative IPC: 2.45332 (Simulation time: 1 hr 30 min 5 sec) 
Heartbeat CPU 0 instructions: 820000000 cycles: 327253825 heartbeat IPC: 2.47494 cumulative IPC: 2.45399 (Simulation time: 1 hr 31 min 10 sec) 
Heartbeat CPU 0 instructions: 830000003 cycles: 331292455 heartbeat IPC: 2.47609 cumulative IPC: 2.45465 (Simulation time: 1 hr 32 min 26 sec) 
Heartbeat CPU 0 instructions: 840000000 cycles: 336287035 heartbeat IPC: 2.00217 cumulative IPC: 2.43844 (Simulation time: 1 hr 33 min 40 sec) 
Heartbeat CPU 0 instructions: 850000002 cycles: 341046462 heartbeat IPC: 2.10109 cumulative IPC: 2.42731 (Simulation time: 1 hr 34 min 50 sec) 
Heartbeat CPU 0 instructions: 860000000 cycles: 345905231 heartbeat IPC: 2.05813 cumulative IPC: 2.41527 (Simulation time: 1 hr 35 min 59 sec) 
Heartbeat CPU 0 instructions: 870000001 cycles: 350817639 heartbeat IPC: 2.03566 cumulative IPC: 2.40316 (Simulation time: 1 hr 37 min 9 sec) 
Heartbeat CPU 0 instructions: 880000002 cycles: 355513272 heartbeat IPC: 2.12964 cumulative IPC: 2.39507 (Simulation time: 1 hr 38 min 18 sec) 
Heartbeat CPU 0 instructions: 890000002 cycles: 360453761 heartbeat IPC: 2.02409 cumulative IPC: 2.38386 (Simulation time: 1 hr 39 min 43 sec) 
Heartbeat CPU 0 instructions: 900000001 cycles: 364603503 heartbeat IPC: 2.40979 cumulative IPC: 2.3845 (Simulation time: 1 hr 40 min 48 sec) 
Heartbeat CPU 0 instructions: 910000002 cycles: 368637166 heartbeat IPC: 2.47914 cumulative IPC: 2.38673 (Simulation time: 1 hr 41 min 51 sec) 
Heartbeat CPU 0 instructions: 920000002 cycles: 372720319 heartbeat IPC: 2.44909 cumulative IPC: 2.38817 (Simulation time: 1 hr 42 min 55 sec) 
Heartbeat CPU 0 instructions: 930000001 cycles: 377671780 heartbeat IPC: 2.01961 cumulative IPC: 2.37808 (Simulation time: 1 hr 44 min 15 sec) 
Heartbeat CPU 0 instructions: 940000004 cycles: 382541535 heartbeat IPC: 2.05349 cumulative IPC: 2.36957 (Simulation time: 1 hr 45 min 29 sec) 
Heartbeat CPU 0 instructions: 950000001 cycles: 387094279 heartbeat IPC: 2.19648 cumulative IPC: 2.36543 (Simulation time: 1 hr 47 min 6 sec) 
Heartbeat CPU 0 instructions: 960000004 cycles: 391135785 heartbeat IPC: 2.47433 cumulative IPC: 2.36769 (Simulation time: 1 hr 48 min 12 sec) 
Heartbeat CPU 0 instructions: 970000001 cycles: 395705651 heartbeat IPC: 2.18825 cumulative IPC: 2.36357 (Simulation time: 1 hr 49 min 22 sec) 
Heartbeat CPU 0 instructions: 980000004 cycles: 400219559 heartbeat IPC: 2.21538 cumulative IPC: 2.36028 (Simulation time: 1 hr 50 min 32 sec) 
Heartbeat CPU 0 instructions: 990000000 cycles: 404645383 heartbeat IPC: 2.25947 cumulative IPC: 2.35813 (Simulation time: 1 hr 51 min 50 sec) 
Heartbeat CPU 0 instructions: 1000000000 cycles: 408707819 heartbeat IPC: 2.46158 cumulative IPC: 2.36012 (Simulation time: 1 hr 53 min 13 sec) 
Heartbeat CPU 0 instructions: 1010000001 cycles: 412747373 heartbeat IPC: 2.47552 cumulative IPC: 2.36227 (Simulation time: 1 hr 54 min 18 sec) 
Heartbeat CPU 0 instructions: 1020000001 cycles: 416794064 heartbeat IPC: 2.47115 cumulative IPC: 2.36428 (Simulation time: 1 hr 55 min 22 sec) 
Heartbeat CPU 0 instructions: 1030000000 cycles: 421179949 heartbeat IPC: 2.28004 cumulative IPC: 2.36263 (Simulation time: 1 hr 56 min 37 sec) 
Heartbeat CPU 0 instructions: 1040000004 cycles: 426430552 heartbeat IPC: 1.90454 cumulative IPC: 2.35215 (Simulation time: 1 hr 57 min 55 sec) 
Heartbeat CPU 0 instructions: 1050000001 cycles: 431533569 heartbeat IPC: 1.95962 cumulative IPC: 2.34362 (Simulation time: 1 hr 59 min 6 sec) 
Heartbeat CPU 0 instructions: 1060000004 cycles: 436446484 heartbeat IPC: 2.03545 cumulative IPC: 2.3373 (Simulation time: 2 hr 0 min 16 sec) 
Heartbeat CPU 0 instructions: 1070000002 cycles: 440538730 heartbeat IPC: 2.44365 cumulative IPC: 2.33909 (Simulation time: 2 hr 1 min 21 sec) 
Heartbeat CPU 0 instructions: 1080000000 cycles: 444817820 heartbeat IPC: 2.33695 cumulative IPC: 2.33905 (Simulation time: 2 hr 2 min 27 sec) 
Heartbeat CPU 0 instructions: 1090000003 cycles: 448946076 heartbeat IPC: 2.42233 cumulative IPC: 2.34041 (Simulation time: 2 hr 3 min 32 sec) 
Heartbeat CPU 0 instructions: 1100000004 cycles: 452982704 heartbeat IPC: 2.47732 cumulative IPC: 2.34257 (Simulation time: 2 hr 4 min 36 sec) 
Heartbeat CPU 0 instructions: 1110000002 cycles: 457024455 heartbeat IPC: 2.47417 cumulative IPC: 2.34461 (Simulation time: 2 hr 5 min 39 sec) 
Heartbeat CPU 0 instructions: 1120000000 cycles: 461053754 heartbeat IPC: 2.48182 cumulative IPC: 2.34671 (Simulation time: 2 hr 6 min 43 sec) 
Heartbeat CPU 0 instructions: 1130000000 cycles: 465080902 heartbeat IPC: 2.48315 cumulative IPC: 2.34876 (Simulation time: 2 hr 7 min 47 sec) 
Heartbeat CPU 0 instructions: 1140000003 cycles: 469118048 heartbeat IPC: 2.477 cumulative IPC: 2.35066 (Simulation time: 2 hr 8 min 49 sec) 
Heartbeat CPU 0 instructions: 1150000001 cycles: 473147154 heartbeat IPC: 2.48194 cumulative IPC: 2.35257 (Simulation time: 2 hr 9 min 55 sec) 
Heartbeat CPU 0 instructions: 1160000003 cycles: 477182020 heartbeat IPC: 2.4784 cumulative IPC: 2.35438 (Simulation time: 2 hr 11 min 0 sec) 
Heartbeat CPU 0 instructions: 1170000001 cycles: 481216923 heartbeat IPC: 2.47837 cumulative IPC: 2.35614 (Simulation time: 2 hr 12 min 4 sec) 
Heartbeat CPU 0 instructions: 1180000004 cycles: 485251740 heartbeat IPC: 2.47843 cumulative IPC: 2.35785 (Simulation time: 2 hr 13 min 8 sec) 
Heartbeat CPU 0 instructions: 1190000002 cycles: 489283775 heartbeat IPC: 2.48014 cumulative IPC: 2.35954 (Simulation time: 2 hr 14 min 13 sec) 
Heartbeat CPU 0 instructions: 1200000004 cycles: 493331256 heartbeat IPC: 2.47067 cumulative IPC: 2.36106 (Simulation time: 2 hr 15 min 17 sec) 
Heartbeat CPU 0 instructions: 1210000001 cycles: 497370185 heartbeat IPC: 2.4759 cumulative IPC: 2.3626 (Simulation time: 2 hr 16 min 21 sec) 
Heartbeat CPU 0 instructions: 1220000004 cycles: 501386302 heartbeat IPC: 2.48997 cumulative IPC: 2.36428 (Simulation time: 2 hr 17 min 24 sec) 
Heartbeat CPU 0 instructions: 1230000002 cycles: 505432296 heartbeat IPC: 2.47158 cumulative IPC: 2.36569 (Simulation time: 2 hr 18 min 28 sec) 
Heartbeat CPU 0 instructions: 1240000000 cycles: 509455956 heartbeat IPC: 2.4853 cumulative IPC: 2.36723 (Simulation time: 2 hr 19 min 32 sec) 
Heartbeat CPU 0 instructions: 1250000002 cycles: 513480109 heartbeat IPC: 2.485 cumulative IPC: 2.36872 (Simulation time: 2 hr 20 min 35 sec) 
Heartbeat CPU 0 instructions: 1260000003 cycles: 517526327 heartbeat IPC: 2.47144 cumulative IPC: 2.37002 (Simulation time: 2 hr 21 min 39 sec) 
Heartbeat CPU 0 instructions: 1270000002 cycles: 521549651 heartbeat IPC: 2.48551 cumulative IPC: 2.37145 (Simulation time: 2 hr 22 min 43 sec) 
Heartbeat CPU 0 instructions: 1280000002 cycles: 525568311 heartbeat IPC: 2.48839 cumulative IPC: 2.37288 (Simulation time: 2 hr 23 min 45 sec) 
Heartbeat CPU 0 instructions: 1290000000 cycles: 529601794 heartbeat IPC: 2.47925 cumulative IPC: 2.37417 (Simulation time: 2 hr 24 min 48 sec) 
Heartbeat CPU 0 instructions: 1300000001 cycles: 534196562 heartbeat IPC: 2.17639 cumulative IPC: 2.37148 (Simulation time: 2 hr 25 min 54 sec) 
Heartbeat CPU 0 instructions: 1310000001 cycles: 538700018 heartbeat IPC: 2.22052 cumulative IPC: 2.36949 (Simulation time: 2 hr 27 min 0 sec) 
Heartbeat CPU 0 instructions: 1320000002 cycles: 542914489 heartbeat IPC: 2.37278 cumulative IPC: 2.36953 (Simulation time: 2 hr 28 min 5 sec) 
Heartbeat CPU 0 instructions: 1330000001 cycles: 547498812 heartbeat IPC: 2.18135 cumulative IPC: 2.36707 (Simulation time: 2 hr 29 min 11 sec) 
Heartbeat CPU 0 instructions: 1340000001 cycles: 551906278 heartbeat IPC: 2.26888 cumulative IPC: 2.36585 (Simulation time: 2 hr 30 min 17 sec) 
Heartbeat CPU 0 instructions: 1350000000 cycles: 556092220 heartbeat IPC: 2.38895 cumulative IPC: 2.36612 (Simulation time: 2 hr 31 min 21 sec) 
Heartbeat CPU 0 instructions: 1360000000 cycles: 560139668 heartbeat IPC: 2.47069 cumulative IPC: 2.36728 (Simulation time: 2 hr 32 min 23 sec) 
Heartbeat CPU 0 instructions: 1370000004 cycles: 564290019 heartbeat IPC: 2.40944 cumulative IPC: 2.36776 (Simulation time: 2 hr 33 min 27 sec) 
Heartbeat CPU 0 instructions: 1380000002 cycles: 568329718 heartbeat IPC: 2.47543 cumulative IPC: 2.36893 (Simulation time: 2 hr 34 min 30 sec) 
Heartbeat CPU 0 instructions: 1390000003 cycles: 572366650 heartbeat IPC: 2.47713 cumulative IPC: 2.37009 (Simulation time: 2 hr 35 min 33 sec) 
Heartbeat CPU 0 instructions: 1400000001 cycles: 576410511 heartbeat IPC: 2.47288 cumulative IPC: 2.37119 (Simulation time: 2 hr 36 min 36 sec) 
Heartbeat CPU 0 instructions: 1410000001 cycles: 580464702 heartbeat IPC: 2.46658 cumulative IPC: 2.3722 (Simulation time: 2 hr 37 min 39 sec) 
Heartbeat CPU 0 instructions: 1420000002 cycles: 584495444 heartbeat IPC: 2.48093 cumulative IPC: 2.37333 (Simulation time: 2 hr 38 min 42 sec) 
Heartbeat CPU 0 instructions: 1430000000 cycles: 588552066 heartbeat IPC: 2.4651 cumulative IPC: 2.37428 (Simulation time: 2 hr 39 min 45 sec) 
Heartbeat CPU 0 instructions: 1440000000 cycles: 592598105 heartbeat IPC: 2.47155 cumulative IPC: 2.37527 (Simulation time: 2 hr 40 min 48 sec) 
Heartbeat CPU 0 instructions: 1450000001 cycles: 596738610 heartbeat IPC: 2.41516 cumulative IPC: 2.37568 (Simulation time: 2 hr 41 min 52 sec) 
Heartbeat CPU 0 instructions: 1460000003 cycles: 600808414 heartbeat IPC: 2.45712 cumulative IPC: 2.3765 (Simulation time: 2 hr 42 min 56 sec) 
Heartbeat CPU 0 instructions: 1470000004 cycles: 604941474 heartbeat IPC: 2.41952 cumulative IPC: 2.37694 (Simulation time: 2 hr 43 min 59 sec) 
Heartbeat CPU 0 instructions: 1480000003 cycles: 609026209 heartbeat IPC: 2.44814 cumulative IPC: 2.37765 (Simulation time: 2 hr 45 min 2 sec) 
Heartbeat CPU 0 instructions: 1490000004 cycles: 613080406 heartbeat IPC: 2.46658 cumulative IPC: 2.37851 (Simulation time: 2 hr 46 min 5 sec) 
Heartbeat CPU 0 instructions: 1500000000 cycles: 617109505 heartbeat IPC: 2.48194 cumulative IPC: 2.3795 (Simulation time: 2 hr 47 min 8 sec) 
Heartbeat CPU 0 instructions: 1510000002 cycles: 621142266 heartbeat IPC: 2.47969 cumulative IPC: 2.38046 (Simulation time: 2 hr 48 min 12 sec) 
Heartbeat CPU 0 instructions: 1520000000 cycles: 625193669 heartbeat IPC: 2.46828 cumulative IPC: 2.38129 (Simulation time: 2 hr 49 min 15 sec) 
Heartbeat CPU 0 instructions: 1530000001 cycles: 629240344 heartbeat IPC: 2.47116 cumulative IPC: 2.38213 (Simulation time: 2 hr 50 min 18 sec) 
Heartbeat CPU 0 instructions: 1540000004 cycles: 633277402 heartbeat IPC: 2.47705 cumulative IPC: 2.38301 (Simulation time: 2 hr 51 min 21 sec) 
Heartbeat CPU 0 instructions: 1550000001 cycles: 637318508 heartbeat IPC: 2.47457 cumulative IPC: 2.38385 (Simulation time: 2 hr 52 min 24 sec) 
Heartbeat CPU 0 instructions: 1560000003 cycles: 641359118 heartbeat IPC: 2.47487 cumulative IPC: 2.38467 (Simulation time: 2 hr 53 min 28 sec) 
Heartbeat CPU 0 instructions: 1570000002 cycles: 645395704 heartbeat IPC: 2.47734 cumulative IPC: 2.38551 (Simulation time: 2 hr 54 min 31 sec) 
Heartbeat CPU 0 instructions: 1580000000 cycles: 649440329 heartbeat IPC: 2.47242 cumulative IPC: 2.38628 (Simulation time: 2 hr 55 min 34 sec) 
Heartbeat CPU 0 instructions: 1590000002 cycles: 653493533 heartbeat IPC: 2.46718 cumulative IPC: 2.387 (Simulation time: 2 hr 56 min 38 sec) 
Heartbeat CPU 0 instructions: 1600000000 cycles: 657556471 heartbeat IPC: 2.46127 cumulative IPC: 2.38766 (Simulation time: 2 hr 57 min 42 sec) 
Heartbeat CPU 0 instructions: 1610000002 cycles: 661587120 heartbeat IPC: 2.48099 cumulative IPC: 2.38847 (Simulation time: 2 hr 58 min 45 sec) 
Heartbeat CPU 0 instructions: 1620000000 cycles: 665622159 heartbeat IPC: 2.47829 cumulative IPC: 2.38924 (Simulation time: 2 hr 59 min 48 sec) 
Heartbeat CPU 0 instructions: 1630000001 cycles: 669647785 heartbeat IPC: 2.48409 cumulative IPC: 2.39005 (Simulation time: 3 hr 0 min 51 sec) 
Heartbeat CPU 0 instructions: 1640000003 cycles: 673691729 heartbeat IPC: 2.47283 cumulative IPC: 2.39075 (Simulation time: 3 hr 1 min 55 sec) 
Heartbeat CPU 0 instructions: 1650000000 cycles: 677730932 heartbeat IPC: 2.47574 cumulative IPC: 2.39146 (Simulation time: 3 hr 2 min 57 sec) 
Heartbeat CPU 0 instructions: 1660000001 cycles: 682183433 heartbeat IPC: 2.24593 cumulative IPC: 2.39013 (Simulation time: 3 hr 4 min 3 sec) 
Heartbeat CPU 0 instructions: 1670000002 cycles: 687716494 heartbeat IPC: 1.80732 cumulative IPC: 2.38356 (Simulation time: 3 hr 5 min 16 sec) 
Heartbeat CPU 0 instructions: 1680000001 cycles: 692044761 heartbeat IPC: 2.31039 cumulative IPC: 2.38292 (Simulation time: 3 hr 6 min 21 sec) 
Heartbeat CPU 0 instructions: 1690000003 cycles: 696247304 heartbeat IPC: 2.37951 cumulative IPC: 2.38289 (Simulation time: 3 hr 7 min 25 sec) 
Heartbeat CPU 0 instructions: 1700000000 cycles: 700271082 heartbeat IPC: 2.48523 cumulative IPC: 2.38371 (Simulation time: 3 hr 8 min 29 sec) 
Heartbeat CPU 0 instructions: 1710000001 cycles: 704299042 heartbeat IPC: 2.48265 cumulative IPC: 2.38449 (Simulation time: 3 hr 9 min 32 sec) 
Heartbeat CPU 0 instructions: 1720000000 cycles: 708341855 heartbeat IPC: 2.47353 cumulative IPC: 2.3852 (Simulation time: 3 hr 10 min 35 sec) 
Heartbeat CPU 0 instructions: 1730000003 cycles: 712380304 heartbeat IPC: 2.4762 cumulative IPC: 2.38591 (Simulation time: 3 hr 11 min 38 sec) 
Heartbeat CPU 0 instructions: 1740000000 cycles: 716419349 heartbeat IPC: 2.47583 cumulative IPC: 2.38661 (Simulation time: 3 hr 12 min 42 sec) 
Heartbeat CPU 0 instructions: 1750000002 cycles: 720453700 heartbeat IPC: 2.47871 cumulative IPC: 2.38732 (Simulation time: 3 hr 13 min 45 sec) 
Heartbeat CPU 0 instructions: 1760000000 cycles: 724468078 heartbeat IPC: 2.49105 cumulative IPC: 2.38811 (Simulation time: 3 hr 14 min 48 sec) 
Heartbeat CPU 0 instructions: 1770000000 cycles: 728500635 heartbeat IPC: 2.47982 cumulative IPC: 2.3888 (Simulation time: 3 hr 15 min 51 sec) 
Heartbeat CPU 0 instructions: 1780000002 cycles: 732535751 heartbeat IPC: 2.47824 cumulative IPC: 2.38948 (Simulation time: 3 hr 16 min 54 sec) 
Heartbeat CPU 0 instructions: 1790000002 cycles: 736547301 heartbeat IPC: 2.4928 cumulative IPC: 2.39025 (Simulation time: 3 hr 17 min 57 sec) 
Heartbeat CPU 0 instructions: 1800000000 cycles: 740583959 heartbeat IPC: 2.4773 cumulative IPC: 2.39089 (Simulation time: 3 hr 18 min 59 sec) 
Heartbeat CPU 0 instructions: 1810000001 cycles: 744594700 heartbeat IPC: 2.49331 cumulative IPC: 2.39164 (Simulation time: 3 hr 20 min 2 sec) 
Heartbeat CPU 0 instructions: 1820000001 cycles: 748634864 heartbeat IPC: 2.47515 cumulative IPC: 2.39225 (Simulation time: 3 hr 21 min 5 sec) 
Heartbeat CPU 0 instructions: 1830000001 cycles: 752688500 heartbeat IPC: 2.46692 cumulative IPC: 2.3928 (Simulation time: 3 hr 22 min 7 sec) 
Heartbeat CPU 0 instructions: 1840000000 cycles: 757589662 heartbeat IPC: 2.04033 cumulative IPC: 2.38972 (Simulation time: 3 hr 23 min 16 sec) 
Heartbeat CPU 0 instructions: 1850000000 cycles: 762988264 heartbeat IPC: 1.85233 cumulative IPC: 2.38459 (Simulation time: 3 hr 24 min 28 sec) 
Heartbeat CPU 0 instructions: 1860000003 cycles: 768490598 heartbeat IPC: 1.81741 cumulative IPC: 2.37913 (Simulation time: 3 hr 25 min 39 sec) 
Heartbeat CPU 0 instructions: 1870000004 cycles: 773732751 heartbeat IPC: 1.90761 cumulative IPC: 2.37485 (Simulation time: 3 hr 26 min 49 sec) 
Heartbeat CPU 0 instructions: 1880000004 cycles: 778032396 heartbeat IPC: 2.32577 cumulative IPC: 2.37449 (Simulation time: 3 hr 27 min 53 sec) 
Heartbeat CPU 0 instructions: 1890000002 cycles: 782747745 heartbeat IPC: 2.12073 cumulative IPC: 2.37244 (Simulation time: 3 hr 29 min 0 sec) 
Heartbeat CPU 0 instructions: 1900000001 cycles: 787283042 heartbeat IPC: 2.20493 cumulative IPC: 2.37116 (Simulation time: 3 hr 30 min 6 sec) 
Heartbeat CPU 0 instructions: 1910000001 cycles: 791528516 heartbeat IPC: 2.35545 cumulative IPC: 2.37104 (Simulation time: 3 hr 31 min 11 sec) 
Heartbeat CPU 0 instructions: 1920000000 cycles: 796112587 heartbeat IPC: 2.18147 cumulative IPC: 2.36959 (Simulation time: 3 hr 32 min 17 sec) 
Heartbeat CPU 0 instructions: 1930000004 cycles: 800775879 heartbeat IPC: 2.14441 cumulative IPC: 2.36786 (Simulation time: 3 hr 33 min 23 sec) 
Heartbeat CPU 0 instructions: 1940000000 cycles: 805296501 heartbeat IPC: 2.21208 cumulative IPC: 2.3667 (Simulation time: 3 hr 34 min 30 sec) 
Heartbeat CPU 0 instructions: 1950000002 cycles: 809626259 heartbeat IPC: 2.3096 cumulative IPC: 2.36629 (Simulation time: 3 hr 35 min 34 sec) 
Heartbeat CPU 0 instructions: 1960000004 cycles: 814143737 heartbeat IPC: 2.21362 cumulative IPC: 2.36518 (Simulation time: 3 hr 36 min 40 sec) 
Heartbeat CPU 0 instructions: 1970000004 cycles: 818712677 heartbeat IPC: 2.18869 cumulative IPC: 2.36388 (Simulation time: 3 hr 37 min 46 sec) 
Heartbeat CPU 0 instructions: 1980000001 cycles: 822933832 heartbeat IPC: 2.36902 cumulative IPC: 2.36391 (Simulation time: 3 hr 38 min 51 sec) 
Heartbeat CPU 0 instructions: 1990000003 cycles: 827578309 heartbeat IPC: 2.1531 cumulative IPC: 2.36236 (Simulation time: 3 hr 39 min 57 sec) 
*** Reached end of trace: traces/456.hmmer-191B.champsimtrace.xz
Heartbeat CPU 0 instructions: 2000000004 cycles: 832038613 heartbeat IPC: 2.242 cumulative IPC: 2.36152 (Simulation time: 3 hr 41 min 2 sec) 
Finished CPU 0 instructions: 1500000000 cycles: 635184824 cumulative IPC: 2.36152 (Simulation time: 3 hr 41 min 2 sec) 

ChampSim completed all CPUs

Region of Interest Statistics

CPU 0 cumulative IPC: 2.36152 instructions: 1500000000 cycles: 635184824
cpu0_DTLB TOTAL     ACCESS:  552158148  HIT:  552051815  MISS:     106333
cpu0_DTLB LOAD      ACCESS:  441004138  HIT:  440963662  MISS:      40476
cpu0_DTLB RFO       ACCESS:  111154010  HIT:  111088153  MISS:      65857
cpu0_DTLB PREFETCH  ACCESS:          0  HIT:          0  MISS:          0
cpu0_DTLB WRITEBACK ACCESS:          0  HIT:          0  MISS:          0
cpu0_DTLB TRANSLATION ACCESS:          0  HIT:          0  MISS:          0
cpu0_DTLB PREFETCH  REQUESTED:          0  ISSUED:          0  USEFUL:          0  USELESS:          0
cpu0_DTLB AVERAGE MISS LATENCY: 9.06737 cycles
cpu0_ITLB TOTAL     ACCESS:   25482390  HIT:   25482390  MISS:          0
cpu0_ITLB LOAD      ACCESS:   25482390  HIT:   25482390  MISS:          0
cpu0_ITLB RFO       ACCESS:          0  HIT:          0  MISS:          0
cpu0_ITLB PREFETCH  ACCESS:          0  HIT:          0  MISS:          0
cpu0_ITLB WRITEBACK ACCESS:          0  HIT:          0  MISS:          0
cpu0_ITLB TRANSLATION ACCESS:          0  HIT:          0  MISS:          0
cpu0_ITLB PREFETCH  REQUESTED:          0  ISSUED:          0  USEFUL:          0  USELESS:          0
cpu0_ITLB AVERAGE MISS LATENCY: -nan cycles
cpu0_L1I TOTAL     ACCESS:    1166946  HIT:    1166946  MISS:          0
cpu0_L1I LOAD      ACCESS:    1166946  HIT:    1166946  MISS:          0
cpu0_L1I RFO       ACCESS:          0  HIT:          0  MISS:          0
cpu0_L1I PREFETCH  ACCESS:          0  HIT:          0  MISS:          0
cpu0_L1I WRITEBACK ACCESS:          0  HIT:          0  MISS:          0
cpu0_L1I TRANSLATION ACCESS:          0  HIT:          0  MISS:          0
cpu0_L1I PREFETCH  REQUESTED:          0  ISSUED:          0  USEFUL:          0  USELESS:          0
cpu0_L1I AVERAGE MISS LATENCY: -nan cycles
cpu0_STLB TOTAL     ACCESS:     106333  HIT:     106312  MISS:         21
cpu0_STLB LOAD      ACCESS:      40476  HIT:      40455  MISS:         21
cpu0_STLB RFO       ACCESS:      65857  HIT:      65857  MISS:          0
cpu0_STLB PREFETCH  ACCESS:          0  HIT:          0  MISS:          0
cpu0_STLB WRITEBACK ACCESS:          0  HIT:          0  MISS:          0
cpu0_STLB TRANSLATION ACCESS:          0  HIT:          0  MISS:          0
cpu0_STLB PREFETCH  REQUESTED:          0  ISSUED:          0  USEFUL:          0  USELESS:          0
cpu0_STLB AVERAGE MISS LATENCY: 309.571 cycles
cpu0_L1D TOTAL     ACCESS:  516548928  HIT:  510393161  MISS:    6155767
cpu0_L1D LOAD      ACCESS:  447147426  HIT:  444987452  MISS:    2159974
cpu0_L1D RFO       ACCESS:   69401481  HIT:   65405709  MISS:    3995772
cpu0_L1D PREFETCH  ACCESS:          0  HIT:          0  MISS:          0
cpu0_L1D WRITEBACK ACCESS:          0  HIT:          0  MISS:          0
cpu0_L1D TRANSLATION ACCESS:         21  HIT:          0  MISS:         21
cpu0_L1D PREFETCH  REQUESTED:          0  ISSUED:          0  USEFUL:          0  USELESS:          0
cpu0_L1D AVERAGE MISS LATENCY: 228.246 cycles
cpu0_L2C TOTAL     ACCESS:   10136472  HIT:    6022553  MISS:    4113919
cpu0_L2C LOAD      ACCESS:    2159972  HIT:    1983248  MISS:     176724
cpu0_L2C RFO       ACCESS:    3995772  HIT:      59003  MISS:    3936769
cpu0_L2C PREFETCH  ACCESS:          0  HIT:          0  MISS:          0
cpu0_L2C WRITEBACK ACCESS:    3980707  HIT:    3980302  MISS:        405
cpu0_L2C TRANSLATION ACCESS:         21  HIT:          0  MISS:         21
cpu0_L2C PREFETCH  REQUESTED:          0  ISSUED:          0  USEFUL:          0  USELESS:          0
cpu0_L2C AVERAGE MISS LATENCY: 325.059 cycles
LLC TOTAL     ACCESS:    8049028  HIT:    6789198  MISS:    1259830
LLC LOAD      ACCESS:     176720  HIT:     136630  MISS:      40090
LLC RFO       ACCESS:    3936755  HIT:    2717114  MISS:    1219641
LLC PREFETCH  ACCESS:          0  HIT:          0  MISS:          0
LLC WRITEBACK ACCESS:    3935532  HIT:    3935442  MISS:         90
LLC TRANSLATION ACCESS:         21  HIT:         12  MISS:          9
LLC PREFETCH  REQUESTED:          0  ISSUED:          0  USEFUL:          0  USELESS:          0
LLC AVERAGE MISS LATENCY: 992.898 cycles
~~~~~~~~~~Reuse Distance Profiler output~~~~~~~~~~
0	10469808	4712992
1	23747824	18630944
2	22637872	14159136
3	25462512	16857952
4	28900896	21069696
5	29285360	21362848
6	31319360	24490528
7	28535328	25520144
8	24366480	20923584
9	23194704	19433168
10	19180592	15448128
11	15831680	12423120
12	13821328	10714720
13	13116416	10301104
14	13401584	10752576
15	14314496	11885824
16	16083472	13445472
17	17598192	15260288
18	19797600	17010224
19	22574128	19205968
20	24812816	21436544
21	24390736	22326448
22	25082624	22587136
23	24476928	22469312
24	20049616	17929968
25	17405248	15141968
26	16247824	13814608
27	16565776	13103648
28	16750704	12843392
29	17474848	15561152
30	18085792	16962880
31	18216688	17406400
32	15605712	15141424
33	19537808	19139408
34	9913040	9574416
35	6978000	6676752
36	2667664	2404096
37	1624528	1377200
38	1176656	919488
39	991216	734800
40	889936	604960
41	802992	528256
42	739392	452160
43	684224	401728
44	644848	369520
45	593120	337488
46	519376	297056
47	430688	253744
48	350816	217056
49	284944	184736
50	235088	161664
51	203328	148288
52	172528	130096
53	153504	118592
54	133696	103616
55	124512	97504
56	108544	84736
57	94096	74304
58	89840	71952
59	76432	59952
60	68416	58448
61	63280	55824
62	55360	47728
63	48816	43328
64	101872	91776
66	105040	91680
68	97152	87968
70	87120	82896
72	78096	67536
74	71696	67104
76	45888	40848
78	25424	22384
80	19776	17296
82	11280	9856
84	8080	6528
86	6752	5200
88	5408	4288
90	6208	5344
92	4592	3552
94	5712	4112
96	3920	2736
98	3216	2128
100	2704	1904
102	3584	2528
104	2032	1296
106	2112	1456
108	3008	2272
110	2352	1392
112	2864	2112
114	4144	1312
116	2416	1568
118	1904	1264
120	2432	1360
122	4080	1472
124	2304	1088
126	2560	1072
128	4400	2272
132	4768	2352
136	4704	3552
140	1872	1424
144	3952	2432
148	3968	3216
152	4416	3568
156	4576	4096
160	11232	10704
164	11216	10752
168	5232	4608
172	3472	2336
176	9696	7248
180	12192	7888
184	6336	4048
188	9664	7552
192	10176	7712
196	9424	8352
200	10656	10000
204	10800	8960
208	18096	16080
212	22272	19664
216	24720	18704
220	44064	28928
224	49184	39728
228	64672	47072
232	65024	57904
236	58128	53104
240	52272	51232
244	51504	50688
248	45808	45216
252	33104	32368
256	65936	58896
264	120336	88128
272	144896	127728
280	116880	111200
288	63504	62592
296	35696	34848
304	11696	11184
312	7648	7376
320	4208	4112
328	9456	9392
336	3760	3552
344	5552	1472
352	4912	1744
360	3232	2704
368	5648	5152
376	17120	15152
384	33904	29680
392	38752	33616
400	32928	28656
408	26592	24080
416	19920	18896
424	20096	18848
432	22496	17536
440	26656	17520
448	27184	16448
456	26112	17168
464	28224	20032
472	31520	24720
480	31232	27472
488	27936	25328
496	18960	17536
504	10576	10352
512	12080	12032
528	11568	11488
544	6320	6272
560	9408	9360
576	8448	8400
592	7728	7600
608	10000	9936
624	9600	9568
640	7552	7520
656	7568	7520
672	3280	3184
688	4480	4320
704	9792	9728
720	8928	8880
736	6160	6096
752	9600	9568
768	10800	10768
784	5888	5888
800	5264	5184
816	4912	4864
832	5648	5632
848	9456	9440
864	8288	8272
880	6576	6560
896	8544	8464
912	8992	8944
928	6928	6848
944	8800	8736
960	9216	9168
976	6352	6336
992	8816	8736
1008	10720	10624
1024	15152	15056
1056	10720	10704
1088	16960	16864
1120	16960	16928
1152	17264	17184
1184	12144	12112
1216	12944	12832
1248	15632	15552
1280	14208	14112
1312	15616	15552
1344	16720	16576
1376	17488	17344
1408	12944	12832
1440	12704	12656
1472	16512	16416
1504	16496	16464
1536	15040	14976
1568	11984	11968
1600	13728	13664
1632	15328	15264
1664	15296	15232
1696	16048	16048
1728	15248	15200
1760	17488	17408
1792	14304	14208
1824	13792	13760
1856	16448	16352
1888	16208	16144
1920	17488	17424
1952	12288	12256
1984	13728	13680
2016	15120	15024
2048	29904	29824
2112	35024	34656
2176	28784	28608
2240	34592	34448
2304	30256	30144
2368	28112	28064
2432	30976	30912
2496	33312	33200
2560	28352	28240
2624	32176	31936
2688	28576	28400
2752	28048	27904
2816	29584	29456
2880	32048	31984
2944	28560	28480
3008	32384	32224
3072	31472	31392
3136	27968	27856
3200	31504	31456
3264	32416	32336
3328	28256	28208
3392	33536	33440
3456	30688	30656
3520	28496	28480
3584	31200	31152
3648	30464	30432
3712	31168	31120
3776	32496	32416
3840	30208	30160
3904	28656	28608
3968	31104	31072
4032	32000	31920
4096	62192	62128
4224	58512	58416
4352	67200	67152
4480	67904	67744
4608	71488	71296
4736	87408	87392
4864	95840	95680
4992	98048	97856
5120	93600	93472
5248	91808	91712
5376	88976	88848
5504	87936	87856
5632	82992	82960
5760	84048	84000
5888	120288	120144
6016	233696	233600
6144	1154656	1154576
6272	352176	352096
6400	381488	381488
6528	448176	448096
6656	553040	552944
6784	671216	671120
6912	684800	684752
7040	1950112	1950080
7168	4822656	4822592
7296	2819440	2819392
7424	348080	348016
7552	729936	729824
7680	189760	189680
7808	13376	13344
7936	13680	13648
8064	12848	12800
8192	23520	23376
8448	24688	24576
8704	31424	31344
8960	79808	79760
9216	342352	342240
9472	2145760	2145424
9728	1628768	1628320
9984	582864	582192
10240	204464	204400
10496	114672	114592
10752	4000	3936
11008	18608	18528
11264	1152	1088
11520	976	944
11776	976	928
12032	1072	1024
12288	1520	1440
12544	13856	13840
12800	9904	9808
13056	5648	5584
13312	4304	4224
13568	6432	6368
13824	5808	5792
14080	7152	7104
14336	16544	16480
14592	31168	31104
14848	82640	82592
15104	20096	20064
15360	4928	4896
15616	1440	1440
15872	480	448
16128	608	560
16384	1216	1200
16896	1376	1360
17408	1136	1120
17920	1344	1296
18432	1456	1440
18944	21200	21184
19456	29472	29440
19968	34144	34128
20480	16768	16736
20992	11680	11632
21504	14336	14336
22016	41088	41088
22528	77184	77168
23040	4304	4304
23552	1232	1232
24064	1792	1792
24576	1600	1568
25088	2608	2576
25600	15888	15888
26112	5584	5584
26624	5200	5168
27136	5360	5360
27648	5920	5920
28160	5440	5440
28672	9440	9440
29184	22896	22896
29696	63424	63424
30208	80416	80416
30720	11936	11936
31232	2352	2336
31744	6352	6352
32256	7952	7936
32768	8928	8912
33792	8256	8256
34816	8192	8160
35840	11296	11296
36864	43392	43392
37888	49968	49968
38912	17392	17360
39936	37984	37936
40960	14016	13984
41984	6240	6176
43008	8032	8032
44032	22928	22912
45056	76416	76416
46080	5920	5920
47104	5408	5408
48128	5728	5712
49152	16320	16304
50176	30672	30656
51200	26112	26112
52224	50960	50944
53248	33648	33648
54272	3920	3920
55296	3504	3504
56320	3808	3776
57344	7776	7760
58368	10592	10592
59392	40416	40416
60416	67904	67904
61440	9440	9440
62464	4240	4240
63488	3456	3440
64512	8576	8544
65536	21136	21120
67584	58720	58704
69632	45248	45184
71680	16656	16496
73728	31072	31072
75776	40064	40064
77824	10816	10816
79872	35888	35856
81920	56080	56080
83968	20736	20736
86016	7968	7952
88064	15536	15536
90112	79072	79056
92160	13680	13664
94208	6704	6640
96256	23040	22944
98304	42704	42656
100352	27280	27264
102400	15136	15120
104448	30560	30560
106496	22464	22464
108544	10192	10176
110592	32752	32752
112640	37552	37520
114688	9568	9536
116736	8064	8000
118784	19360	19312
120832	46064	46032
122880	11328	11312
124928	7616	7616
126976	18928	18928
129024	25264	25248
131072	34640	34608
135168	39056	39024
139264	33360	33168
143360	36080	36016
147456	23504	23408
151552	41072	41024
155648	25248	25104
159744	37184	37072
163840	27120	27056
167936	20720	20640
172032	38832	38800
176128	10320	10272
180224	39984	39872
184320	12800	12784
188416	27680	26672
192512	23056	22864
196608	19408	18512
200704	26000	25456
204800	20256	20176
208896	19296	19216
212992	22240	22144
217088	15408	15328
221184	21008	20960
225280	18192	18144
229376	13728	13696
233472	22320	22272
237568	9088	8976
241664	20928	20912
245760	12976	12928
249856	14688	14688
253952	17056	17008
258048	11776	11712
262144	30864	30576
270336	27680	27104
278528	23568	22928
286720	20048	19744
294912	21040	20512
303104	23120	22640
311296	22448	22272
319488	16368	16240
327680	15936	15760
335872	15840	15600
344064	19088	17072
352256	18864	18592
360448	13936	13760
368640	11856	11696
376832	13328	13248
385024	14256	14032
393216	10640	10528
401408	10672	10512
409600	8720	8592
417792	8720	8560
425984	9824	9744
434176	9488	9152
442368	11760	11360
450560	11760	8368
458752	10944	7424
466944	8320	8096
475136	7712	7536
483328	5856	5728
491520	5488	5376
499712	7168	7008
507904	7104	6912
516096	6192	6000
524288	13088	10736
540672	11408	9712
557056	10192	9792
573440	8512	8096
589824	10000	9680
606208	7408	7040
622592	7856	7488
638976	8272	7936
655360	6800	5968
671744	10336	5904
688128	8944	6704
704512	12656	5648
720896	8320	5424
737280	6976	5088
753664	5792	4224
770048	4816	3952
786432	10144	4272
802816	4992	4320
819200	4032	3616
835584	7936	3136
851968	3840	3408
868352	2992	2592
884736	3632	3104
901120	3440	3136
917504	3776	3184
933888	3328	2896
950272	3056	2640
966656	3520	2928
983040	3040	2624
999424	3024	2512
1015808	3072	2560
1032192	3232	2832
1048576	5280	4368
1081344	4240	3248
1114112	4032	3056
1146880	6064	3344
1179648	4576	3440
1212416	3648	2912
1245184	3824	2832
1277952	3744	2960
1310720	3856	2944
1343488	4000	2800
1376256	3632	2944
1409024	33840	2592
1441792	37520	3152
1474560	2912	2080
1507328	14416	2512
1540096	3136	2240
1572864	23088	2208
1605632	2688	1824
1638400	2320	1568
1671168	2912	2272
1703936	2032	1392
1736704	5408	2112
1769472	36624	2224
1802240	8464	1600
1835008	23216	2032
1867776	24704	1328
1900544	22640	1408
1933312	10128	2000
1966080	31408	1984
1998848	100832	1792
2031616	79872	1712
2064384	33760	1376
2097152	35168	3136
2162688	135616	2976
2228224	91712	2384
2293760	38000	2592
2359296	87040	2160
2424832	42576	1776
2490368	24320	1824
2555904	6368	1840
2621440	6048	1872
2686976	77984	2768
2752512	109472	2496
2818048	123472	1984
2883584	60608	1760
2949120	57488	1504
3014656	115136	2400
3080192	212336	2992
3145728	181520	2688
3211264	202240	2240
3276800	185888	2656
3342336	387744	2720
3407872	154224	1728
3473408	46992	992
3538944	20224	608
3604480	5296	480
3670016	19072	912
3735552	59872	896
3801088	25872	976
3866624	27872	736
3932160	4688	736
3997696	36816	1008
4063232	79168	1344
4128768	100400	1360
4194304	277552	3104
4325376	179392	1872
4456448	174704	1888
4587520	122976	1152
4718592	42096	1184
4849664	34544	1008
4980736	108480	1088
5111808	112048	688
5242880	76448	864
5373952	37168	512
5505024	21968	640
5636096	34432	448
5767168	880	336
5898240	464	352
6029312	44752	240
6160384	13088	320
6291456	22272	128
6422528	5536	176
6553600	11424	240
6684672	3456	160
6815744	25104	400
6946816	11584	192
7077888	1568	192
7208960	272	176
7340032	12592	160
7471104	21744	208
7602176	2128	128
7733248	144	128
7864320	32	32
7995392	272	80
8126464	2400	144
8257536	25104	160
8388608	20240	400
8650752	25120	400
8912896	2320	128
9175040	2384	48
9437184	2304	96
9699328	9040	192
9961472	1520	96
10223616	1504	208
10485760	26160	192
10747904	24272	272
11010048	33984	400
11272192	3216	96
11534336	496	128
11796480	5376	64
12058624	0	0
12320768	112	32
12582912	176	32
12845056	9392	304
13107200	35520	80
13369344	7760	32
13631488	144	48
13893632	11504	144
14155776	208	16
14417920	368	96
14680064	7360	32
14942208	2416	80
15204352	10640	192
15466496	51360	192
15728640	1760	64
15990784	11968	96
16252928	528	32
16515072	64	0
16777216	14288	96
17301504	128	16
17825792	128	32
18350080	64	16
18874368	288	0
19398656	2160	16
19922944	1184	16
20447232	96	32
20971520	1632	32
21495808	272	32
22020096	368	48
22544384	368	16
23068672	3984	64
23592960	33392	272
24117248	3392	32
24641536	224	0
25165824	896	16
25690112	784	0
26214400	7968	64
26738688	64	32
27262976	32	0
27787264	32	0
28311552	528	32
28835840	192	0
29360128	240	0
29884416	16	0
30408704	64	32
30932992	96	0
31457280	1472	64
31981568	240	32
32505856	32064	240
33030144	192	48
33554432	17040	112
34603008	2768	32
35651584	96	16
36700160	256	16
37748736	832	32
38797312	3920	32
39845888	96	32
40894464	10064	80
41943040	64	16
42991616	2192	80
44040192	48	32
45088768	128	0
46137344	736	0
47185920	5904	32
48234496	336	0
49283072	144	0
50331648	16	0
51380224	48	0
52428800	48	32
53477376	48	16
54525952	2448	48
55574528	16	0
56623104	1808	0
57671680	16	16
58720256	208	64
59768832	288	48
60817408	80	32
61865984	80	32
62914560	35008	112
63963136	6080	32
65011712	208	16
66060288	0	0
67108864	3840	48
69206016	128	0
71303168	736	0
73400320	64	16
75497472	12144	80
77594624	0	0
79691776	160	16
81788928	32	16
83886080	96	32
85983232	6832	64
88080384	80	48
90177536	144	16
92274688	18000	128
94371840	0	0
96468992	0	0
98566144	336	16
100663296	16	0
102760448	0	0
104857600	48	32
106954752	16	16
109051904	32	0
111149056	16	0
113246208	6464	80
115343360	64	16
117440512	0	0
119537664	32	0
121634816	16	16
123731968	16	16
125829120	32	0
127926272	0	0
130023424	0	0
132120576	96	16
134217728	16	16
138412032	32	0
142606336	0	0
146800640	1552	16
150994944	192	64
155189248	336	32
159383552	32	16
163577856	16	16
167772160	32	0
171966464	32	0
176160768	0	0
180355072	0	0
184549376	0	0
188743680	0	0
192937984	208	32
197132288	10432	64
201326592	16	16
205520896	32	16
209715200	1008	32
213909504	10016	80
218103808	0	0
222298112	64	16
226492416	2336	0
230686720	0	0
234881024	0	0
239075328	16	16
243269632	0	0
247463936	0	0
251658240	0	0
255852544	0	0
260046848	0	0
264241152	352	0
268435456	16	0
276824064	16	16
285212672	0	0
293601280	0	0
301989888	0	0
310378496	48	48
318767104	0	0
327155712	0	0
335544320	16	16
343932928	16	0
352321536	0	0
360710144	0	0
369098752	16	0
377487360	16	16
385875968	16	16
394264576	0	0
402653184	0	0
411041792	16	16
419430400	0	0
427819008	0	0
436207616	0	0
444596224	0	0
452984832	0	0
461373440	0	0
469762048	0	0
478150656	10640	80
486539264	0	0
494927872	0	0
503316480	0	0
511705088	0	0
520093696	0	0
528482304	0	0
536870912	6224	112
553648128	0	0
570425344	0	0
587202560	0	0
603979776	0	0
620756992	0	0
637534208	0	0
654311424	0	0
671088640	0	0
687865856	9712	64
704643072	0	0
721420288	0	0
738197504	0	0
754974720	0	0
771751936	0	0
788529152	0	0
805306368	0	0
822083584	0	0
838860800	0	0
855638016	0	0
872415232	0	0
889192448	0	0
905969664	0	0
922746880	0	0
939524096	0	0
956301312	0	0
973078528	0	0
989855744	0	0
1006632960	0	0
1023410176	0	0
1040187392	0	0
1056964608	0	0
1073741824	0	0
1107296256	0	0
1140850688	0	0
1174405120	0	0
1207959552	0	0
1241513984	0	0
1275068416	0	0
1308622848	0	0
1342177280	0	0
1375731712	0	0
1409286144	0	0
1442840576	0	0
1476395008	0	0
1509949440	0	0
1543503872	0	0
1577058304	0	0
1610612736	0	0
1644167168	0	0
1677721600	0	0
1711276032	0	0
1744830464	0	0
1778384896	0	0
1811939328	0	0
1845493760	0	0
1879048192	0	0
1912602624	0	0
1946157056	0	0
1979711488	0	0
2013265920	0	0
2046820352	0	0
2080374784	0	0
2113929216	0	0
2147483648	0	0
2214592512	0	0
2281701376	0	0
2348810240	0	0
2415919104	0	0
2483027968	0	0
2550136832	0	0
2617245696	0	0
2684354560	0	0
2751463424	0	0
2818572288	0	0
2885681152	0	0
2952790016	0	0
3019898880	0	0
3087007744	0	0
3154116608	0	0
3221225472	0	0
3288334336	0	0
3355443200	0	0
3422552064	0	0
3489660928	0	0
3556769792	0	0
3623878656	0	0
3690987520	0	0
3758096384	0	0
3825205248	0	0
3892314112	0	0
3959422976	0	0
4026531840	0	0
4093640704	0	0
4160749568	0	0
4227858432	0	0
~~~~~~~~~~Reuse Distance Profiler output end~~~~~~~~~~

DRAM Statistics
 CHANNEL 0
 RQ ROW_BUFFER_HIT:      18370  ROW_BUFFER_MISS:    1241085
 DBUS AVG_CONGESTED_CYCLE:    3.99277
 WQ ROW_BUFFER_HIT:      60119  ROW_BUFFER_MISS:    1146757  FULL:          0


CPU 0 Branch Prediction Accuracy: 99.1588% MPKI: 0.37232 Average ROB Occupancy at Mispredict: 151.205
Branch type MPKI
BRANCH_DIRECT_JUMP: 0
BRANCH_INDIRECT: 0.00037
BRANCH_CONDITIONAL: 0.371943
BRANCH_DIRECT_CALL: 0
BRANCH_INDIRECT_CALL: 7.33333e-06
BRANCH_RETURN: 0

