
*** ChampSim Multicore Out-of-Order Simulator ***

Warmup Instructions: 500000000
Simulation Instructions: 1500000000
Number of CPUs: 1
Off-chip DRAM Size: 4 GiB Channels: 1 Width: 64-bit Data Rate: 3200 MT/s

VirtualMemory physical capacity: 8588881920 num_ppages: 2096895
VirtualMemory page size: 4096 log2_page_size: 12

CPU 0 runs traces/458.sjeng-767B.champsimtrace.xz
CPU 0 Bimodal branch predictor
Basic BTB sets: 1024 ways: 8 indirect buffer size: 4096 RAS size: 64
Initializing LRU.
Initializing LRU.
Initializing LRU.
Initializing LRU.
Initializing rdLRU.
Initializing LRU.
Initializing LRU.
Heartbeat CPU 0 instructions: 10000001 cycles: 2502733 heartbeat IPC: 3.99563 cumulative IPC: 3.99563 (Simulation time: 0 hr 0 min 34 sec) 
Heartbeat CPU 0 instructions: 20000000 cycles: 5006212 heartbeat IPC: 3.99444 cumulative IPC: 3.99504 (Simulation time: 0 hr 1 min 7 sec) 
Heartbeat CPU 0 instructions: 30000002 cycles: 7509890 heartbeat IPC: 3.99412 cumulative IPC: 3.99473 (Simulation time: 0 hr 1 min 39 sec) 
Heartbeat CPU 0 instructions: 40000003 cycles: 10012895 heartbeat IPC: 3.9952 cumulative IPC: 3.99485 (Simulation time: 0 hr 2 min 14 sec) 
Heartbeat CPU 0 instructions: 50000002 cycles: 12516576 heartbeat IPC: 3.99412 cumulative IPC: 3.9947 (Simulation time: 0 hr 2 min 47 sec) 
Heartbeat CPU 0 instructions: 60000001 cycles: 15022794 heartbeat IPC: 3.99008 cumulative IPC: 3.99393 (Simulation time: 0 hr 3 min 21 sec) 
Heartbeat CPU 0 instructions: 70000003 cycles: 17524544 heartbeat IPC: 3.9972 cumulative IPC: 3.9944 (Simulation time: 0 hr 3 min 53 sec) 
Heartbeat CPU 0 instructions: 80000003 cycles: 20036464 heartbeat IPC: 3.98102 cumulative IPC: 3.99272 (Simulation time: 0 hr 4 min 24 sec) 
Heartbeat CPU 0 instructions: 90000003 cycles: 22544006 heartbeat IPC: 3.98797 cumulative IPC: 3.99219 (Simulation time: 0 hr 4 min 56 sec) 
Heartbeat CPU 0 instructions: 100000002 cycles: 25048858 heartbeat IPC: 3.99225 cumulative IPC: 3.9922 (Simulation time: 0 hr 5 min 32 sec) 
Heartbeat CPU 0 instructions: 110000000 cycles: 27556093 heartbeat IPC: 3.98846 cumulative IPC: 3.99186 (Simulation time: 0 hr 6 min 8 sec) 
Heartbeat CPU 0 instructions: 120000001 cycles: 30059240 heartbeat IPC: 3.99497 cumulative IPC: 3.99212 (Simulation time: 0 hr 6 min 41 sec) 
Heartbeat CPU 0 instructions: 130000002 cycles: 32567672 heartbeat IPC: 3.98655 cumulative IPC: 3.99169 (Simulation time: 0 hr 7 min 13 sec) 
Heartbeat CPU 0 instructions: 140000000 cycles: 35069120 heartbeat IPC: 3.99768 cumulative IPC: 3.99212 (Simulation time: 0 hr 7 min 44 sec) 
Heartbeat CPU 0 instructions: 150000000 cycles: 37572643 heartbeat IPC: 3.99437 cumulative IPC: 3.99227 (Simulation time: 0 hr 8 min 16 sec) 
Heartbeat CPU 0 instructions: 160000002 cycles: 40075444 heartbeat IPC: 3.99552 cumulative IPC: 3.99247 (Simulation time: 0 hr 8 min 47 sec) 
Heartbeat CPU 0 instructions: 170000002 cycles: 42578112 heartbeat IPC: 3.99574 cumulative IPC: 3.99266 (Simulation time: 0 hr 9 min 19 sec) 
Heartbeat CPU 0 instructions: 180000003 cycles: 45082671 heartbeat IPC: 3.99272 cumulative IPC: 3.99267 (Simulation time: 0 hr 9 min 50 sec) 
Heartbeat CPU 0 instructions: 190000003 cycles: 47587386 heartbeat IPC: 3.99247 cumulative IPC: 3.99265 (Simulation time: 0 hr 10 min 21 sec) 
Heartbeat CPU 0 instructions: 200000000 cycles: 50093522 heartbeat IPC: 3.99021 cumulative IPC: 3.99253 (Simulation time: 0 hr 10 min 51 sec) 
Heartbeat CPU 0 instructions: 210000002 cycles: 52602224 heartbeat IPC: 3.98613 cumulative IPC: 3.99223 (Simulation time: 0 hr 11 min 22 sec) 
Heartbeat CPU 0 instructions: 220000002 cycles: 55109524 heartbeat IPC: 3.98835 cumulative IPC: 3.99205 (Simulation time: 0 hr 11 min 53 sec) 
Heartbeat CPU 0 instructions: 230000000 cycles: 57615450 heartbeat IPC: 3.99054 cumulative IPC: 3.99198 (Simulation time: 0 hr 12 min 24 sec) 
Heartbeat CPU 0 instructions: 240000000 cycles: 60118916 heartbeat IPC: 3.99446 cumulative IPC: 3.99209 (Simulation time: 0 hr 12 min 55 sec) 
Heartbeat CPU 0 instructions: 250000003 cycles: 62624228 heartbeat IPC: 3.99152 cumulative IPC: 3.99207 (Simulation time: 0 hr 13 min 26 sec) 
Heartbeat CPU 0 instructions: 260000003 cycles: 65136158 heartbeat IPC: 3.981 cumulative IPC: 3.99164 (Simulation time: 0 hr 13 min 56 sec) 
Heartbeat CPU 0 instructions: 270000001 cycles: 67650136 heartbeat IPC: 3.97776 cumulative IPC: 3.99112 (Simulation time: 0 hr 14 min 28 sec) 
Heartbeat CPU 0 instructions: 280000000 cycles: 70155419 heartbeat IPC: 3.99156 cumulative IPC: 3.99114 (Simulation time: 0 hr 14 min 59 sec) 
Heartbeat CPU 0 instructions: 290000003 cycles: 72659472 heartbeat IPC: 3.99353 cumulative IPC: 3.99122 (Simulation time: 0 hr 15 min 30 sec) 
Heartbeat CPU 0 instructions: 300000001 cycles: 75165026 heartbeat IPC: 3.99113 cumulative IPC: 3.99122 (Simulation time: 0 hr 16 min 0 sec) 
Heartbeat CPU 0 instructions: 310000003 cycles: 77670254 heartbeat IPC: 3.99165 cumulative IPC: 3.99123 (Simulation time: 0 hr 16 min 31 sec) 
Heartbeat CPU 0 instructions: 320000002 cycles: 80172886 heartbeat IPC: 3.99579 cumulative IPC: 3.99137 (Simulation time: 0 hr 17 min 2 sec) 
Heartbeat CPU 0 instructions: 330000001 cycles: 82675644 heartbeat IPC: 3.99559 cumulative IPC: 3.9915 (Simulation time: 0 hr 17 min 33 sec) 
Heartbeat CPU 0 instructions: 340000000 cycles: 85185342 heartbeat IPC: 3.98454 cumulative IPC: 3.9913 (Simulation time: 0 hr 18 min 3 sec) 
Heartbeat CPU 0 instructions: 350000000 cycles: 87691214 heartbeat IPC: 3.99063 cumulative IPC: 3.99128 (Simulation time: 0 hr 18 min 34 sec) 
Heartbeat CPU 0 instructions: 360000001 cycles: 90196356 heartbeat IPC: 3.99179 cumulative IPC: 3.99129 (Simulation time: 0 hr 19 min 4 sec) 
Heartbeat CPU 0 instructions: 370000002 cycles: 92697800 heartbeat IPC: 3.99769 cumulative IPC: 3.99146 (Simulation time: 0 hr 19 min 38 sec) 
Heartbeat CPU 0 instructions: 380000002 cycles: 95201775 heartbeat IPC: 3.99365 cumulative IPC: 3.99152 (Simulation time: 0 hr 20 min 20 sec) 
Heartbeat CPU 0 instructions: 390000002 cycles: 97703946 heartbeat IPC: 3.99653 cumulative IPC: 3.99165 (Simulation time: 0 hr 20 min 54 sec) 
Heartbeat CPU 0 instructions: 400000001 cycles: 100208466 heartbeat IPC: 3.99278 cumulative IPC: 3.99168 (Simulation time: 0 hr 21 min 27 sec) 
Heartbeat CPU 0 instructions: 410000003 cycles: 102710555 heartbeat IPC: 3.99666 cumulative IPC: 3.9918 (Simulation time: 0 hr 22 min 1 sec) 
Heartbeat CPU 0 instructions: 420000000 cycles: 105213087 heartbeat IPC: 3.99595 cumulative IPC: 3.9919 (Simulation time: 0 hr 22 min 34 sec) 
Heartbeat CPU 0 instructions: 430000000 cycles: 107714612 heartbeat IPC: 3.99756 cumulative IPC: 3.99203 (Simulation time: 0 hr 23 min 7 sec) 
Heartbeat CPU 0 instructions: 440000000 cycles: 110217162 heartbeat IPC: 3.99592 cumulative IPC: 3.99212 (Simulation time: 0 hr 23 min 40 sec) 
Heartbeat CPU 0 instructions: 450000003 cycles: 112721364 heartbeat IPC: 3.99329 cumulative IPC: 3.99214 (Simulation time: 0 hr 24 min 22 sec) 
Heartbeat CPU 0 instructions: 460000000 cycles: 115222694 heartbeat IPC: 3.99787 cumulative IPC: 3.99227 (Simulation time: 0 hr 25 min 12 sec) 
Heartbeat CPU 0 instructions: 470000003 cycles: 117726947 heartbeat IPC: 3.99321 cumulative IPC: 3.99229 (Simulation time: 0 hr 25 min 50 sec) 
Heartbeat CPU 0 instructions: 480000000 cycles: 120234229 heartbeat IPC: 3.98838 cumulative IPC: 3.99221 (Simulation time: 0 hr 26 min 25 sec) 
Heartbeat CPU 0 instructions: 490000001 cycles: 122739684 heartbeat IPC: 3.99129 cumulative IPC: 3.99219 (Simulation time: 0 hr 27 min 0 sec) 
Heartbeat CPU 0 instructions: 500000001 cycles: 125243836 heartbeat IPC: 3.99337 cumulative IPC: 3.99221 (Simulation time: 0 hr 27 min 32 sec) 

Warmup complete CPU 0 instructions: 500000001 cycles: 125243836 (Simulation time: 0 hr 27 min 32 sec) 

Heartbeat CPU 0 instructions: 510000000 cycles: 137699548 heartbeat IPC: 0.802844 cumulative IPC: 0.802844 (Simulation time: 0 hr 28 min 9 sec) 
Heartbeat CPU 0 instructions: 520000000 cycles: 149151901 heartbeat IPC: 0.873183 cumulative IPC: 0.836538 (Simulation time: 0 hr 28 min 45 sec) 
Heartbeat CPU 0 instructions: 530000000 cycles: 160430774 heartbeat IPC: 0.886613 cumulative IPC: 0.852589 (Simulation time: 0 hr 29 min 21 sec) 
Heartbeat CPU 0 instructions: 540000000 cycles: 171455720 heartbeat IPC: 0.907034 cumulative IPC: 0.865578 (Simulation time: 0 hr 29 min 58 sec) 
Heartbeat CPU 0 instructions: 550000004 cycles: 183712538 heartbeat IPC: 0.815873 cumulative IPC: 0.855158 (Simulation time: 0 hr 30 min 34 sec) 
Heartbeat CPU 0 instructions: 560000000 cycles: 195968269 heartbeat IPC: 0.815944 cumulative IPC: 0.848363 (Simulation time: 0 hr 31 min 9 sec) 
Heartbeat CPU 0 instructions: 570000001 cycles: 208403870 heartbeat IPC: 0.804143 cumulative IPC: 0.841751 (Simulation time: 0 hr 31 min 46 sec) 
Heartbeat CPU 0 instructions: 580000001 cycles: 219775599 heartbeat IPC: 0.879374 cumulative IPC: 0.846276 (Simulation time: 0 hr 32 min 23 sec) 
Heartbeat CPU 0 instructions: 590000003 cycles: 231030042 heartbeat IPC: 0.888538 cumulative IPC: 0.850773 (Simulation time: 0 hr 33 min 0 sec) 
Heartbeat CPU 0 instructions: 600000004 cycles: 242610098 heartbeat IPC: 0.863554 cumulative IPC: 0.852034 (Simulation time: 0 hr 33 min 37 sec) 
Heartbeat CPU 0 instructions: 610000000 cycles: 254349588 heartbeat IPC: 0.851825 cumulative IPC: 0.852015 (Simulation time: 0 hr 34 min 13 sec) 
Heartbeat CPU 0 instructions: 620000004 cycles: 266479059 heartbeat IPC: 0.824439 cumulative IPC: 0.849646 (Simulation time: 0 hr 34 min 50 sec) 
Heartbeat CPU 0 instructions: 630000003 cycles: 278540066 heartbeat IPC: 0.829118 cumulative IPC: 0.848031 (Simulation time: 0 hr 35 min 39 sec) 
Heartbeat CPU 0 instructions: 640000000 cycles: 290497741 heartbeat IPC: 0.836283 cumulative IPC: 0.847181 (Simulation time: 0 hr 36 min 15 sec) 
Heartbeat CPU 0 instructions: 650000003 cycles: 302612165 heartbeat IPC: 0.825463 cumulative IPC: 0.845698 (Simulation time: 0 hr 36 min 53 sec) 
Heartbeat CPU 0 instructions: 660000001 cycles: 314520933 heartbeat IPC: 0.839717 cumulative IPC: 0.845321 (Simulation time: 0 hr 37 min 29 sec) 
Heartbeat CPU 0 instructions: 670000001 cycles: 326035337 heartbeat IPC: 0.868477 cumulative IPC: 0.846649 (Simulation time: 0 hr 38 min 5 sec) 
Heartbeat CPU 0 instructions: 680000002 cycles: 337664195 heartbeat IPC: 0.85993 cumulative IPC: 0.847376 (Simulation time: 0 hr 38 min 42 sec) 
Heartbeat CPU 0 instructions: 690000000 cycles: 349321865 heartbeat IPC: 0.857804 cumulative IPC: 0.847919 (Simulation time: 0 hr 39 min 18 sec) 
Heartbeat CPU 0 instructions: 700000000 cycles: 361029768 heartbeat IPC: 0.854124 cumulative IPC: 0.848227 (Simulation time: 0 hr 39 min 54 sec) 
Heartbeat CPU 0 instructions: 710000001 cycles: 372463970 heartbeat IPC: 0.874569 cumulative IPC: 0.849445 (Simulation time: 0 hr 40 min 30 sec) 
Heartbeat CPU 0 instructions: 720000000 cycles: 384197452 heartbeat IPC: 0.852262 cumulative IPC: 0.849573 (Simulation time: 0 hr 41 min 6 sec) 
Heartbeat CPU 0 instructions: 730000000 cycles: 395745110 heartbeat IPC: 0.865976 cumulative IPC: 0.850273 (Simulation time: 0 hr 41 min 41 sec) 
Heartbeat CPU 0 instructions: 740000003 cycles: 407345605 heartbeat IPC: 0.862032 cumulative IPC: 0.850757 (Simulation time: 0 hr 42 min 17 sec) 
Heartbeat CPU 0 instructions: 750000000 cycles: 418781984 heartbeat IPC: 0.874402 cumulative IPC: 0.851678 (Simulation time: 0 hr 42 min 55 sec) 
Heartbeat CPU 0 instructions: 760000001 cycles: 430370198 heartbeat IPC: 0.862946 cumulative IPC: 0.852106 (Simulation time: 0 hr 43 min 30 sec) 
Heartbeat CPU 0 instructions: 770000000 cycles: 442064076 heartbeat IPC: 0.855148 cumulative IPC: 0.852218 (Simulation time: 0 hr 44 min 7 sec) 
Heartbeat CPU 0 instructions: 780000000 cycles: 453678927 heartbeat IPC: 0.860967 cumulative IPC: 0.852528 (Simulation time: 0 hr 44 min 43 sec) 
Heartbeat CPU 0 instructions: 790000001 cycles: 465186349 heartbeat IPC: 0.869004 cumulative IPC: 0.853085 (Simulation time: 0 hr 45 min 20 sec) 
Heartbeat CPU 0 instructions: 800000000 cycles: 476402785 heartbeat IPC: 0.891549 cumulative IPC: 0.854314 (Simulation time: 0 hr 45 min 55 sec) 
Heartbeat CPU 0 instructions: 810000002 cycles: 487793552 heartbeat IPC: 0.877904 cumulative IPC: 0.855055 (Simulation time: 0 hr 46 min 36 sec) 
Heartbeat CPU 0 instructions: 820000001 cycles: 498691148 heartbeat IPC: 0.917633 cumulative IPC: 0.856881 (Simulation time: 0 hr 47 min 12 sec) 
Heartbeat CPU 0 instructions: 830000002 cycles: 510102798 heartbeat IPC: 0.876298 cumulative IPC: 0.857457 (Simulation time: 0 hr 47 min 49 sec) 
Heartbeat CPU 0 instructions: 840000003 cycles: 521534595 heartbeat IPC: 0.874753 cumulative IPC: 0.857956 (Simulation time: 0 hr 48 min 27 sec) 
Heartbeat CPU 0 instructions: 850000002 cycles: 533041039 heartbeat IPC: 0.869078 cumulative IPC: 0.85827 (Simulation time: 0 hr 49 min 4 sec) 
Heartbeat CPU 0 instructions: 860000003 cycles: 544644544 heartbeat IPC: 0.861809 cumulative IPC: 0.858368 (Simulation time: 0 hr 49 min 45 sec) 
Heartbeat CPU 0 instructions: 870000000 cycles: 556167509 heartbeat IPC: 0.867832 cumulative IPC: 0.858621 (Simulation time: 0 hr 50 min 48 sec) 
Heartbeat CPU 0 instructions: 880000002 cycles: 567848020 heartbeat IPC: 0.856127 cumulative IPC: 0.858555 (Simulation time: 0 hr 51 min 51 sec) 
Heartbeat CPU 0 instructions: 890000002 cycles: 579564522 heartbeat IPC: 0.853497 cumulative IPC: 0.858424 (Simulation time: 0 hr 52 min 54 sec) 
Heartbeat CPU 0 instructions: 900000000 cycles: 591190322 heartbeat IPC: 0.860156 cumulative IPC: 0.858468 (Simulation time: 0 hr 53 min 57 sec) 
Heartbeat CPU 0 instructions: 910000000 cycles: 603153535 heartbeat IPC: 0.835896 cumulative IPC: 0.857903 (Simulation time: 0 hr 54 min 57 sec) 
Heartbeat CPU 0 instructions: 920000000 cycles: 614623838 heartbeat IPC: 0.871817 cumulative IPC: 0.858229 (Simulation time: 0 hr 55 min 34 sec) 
Heartbeat CPU 0 instructions: 930000001 cycles: 626265333 heartbeat IPC: 0.858996 cumulative IPC: 0.858247 (Simulation time: 0 hr 56 min 11 sec) 
Heartbeat CPU 0 instructions: 940000002 cycles: 637959542 heartbeat IPC: 0.855124 cumulative IPC: 0.858175 (Simulation time: 0 hr 56 min 49 sec) 
Heartbeat CPU 0 instructions: 950000000 cycles: 649502384 heartbeat IPC: 0.866338 cumulative IPC: 0.858355 (Simulation time: 0 hr 57 min 26 sec) 
Heartbeat CPU 0 instructions: 960000002 cycles: 661090772 heartbeat IPC: 0.862933 cumulative IPC: 0.858454 (Simulation time: 0 hr 58 min 4 sec) 
Heartbeat CPU 0 instructions: 970000000 cycles: 672729688 heartbeat IPC: 0.859186 cumulative IPC: 0.85847 (Simulation time: 0 hr 58 min 41 sec) 
Heartbeat CPU 0 instructions: 980000002 cycles: 684296553 heartbeat IPC: 0.864539 cumulative IPC: 0.858595 (Simulation time: 0 hr 59 min 19 sec) 
Heartbeat CPU 0 instructions: 990000001 cycles: 695890919 heartbeat IPC: 0.862488 cumulative IPC: 0.858674 (Simulation time: 0 hr 59 min 57 sec) 
Heartbeat CPU 0 instructions: 1000000001 cycles: 707464530 heartbeat IPC: 0.864035 cumulative IPC: 0.858781 (Simulation time: 1 hr 0 min 34 sec) 
Heartbeat CPU 0 instructions: 1010000002 cycles: 718999877 heartbeat IPC: 0.866901 cumulative IPC: 0.858939 (Simulation time: 1 hr 1 min 12 sec) 
Heartbeat CPU 0 instructions: 1020000002 cycles: 730695340 heartbeat IPC: 0.855032 cumulative IPC: 0.858863 (Simulation time: 1 hr 1 min 50 sec) 
Heartbeat CPU 0 instructions: 1030000000 cycles: 742319208 heartbeat IPC: 0.860299 cumulative IPC: 0.85889 (Simulation time: 1 hr 2 min 27 sec) 
Heartbeat CPU 0 instructions: 1040000000 cycles: 754009800 heartbeat IPC: 0.855389 cumulative IPC: 0.858825 (Simulation time: 1 hr 3 min 5 sec) 
Heartbeat CPU 0 instructions: 1050000002 cycles: 765746860 heartbeat IPC: 0.852002 cumulative IPC: 0.8587 (Simulation time: 1 hr 3 min 49 sec) 
Heartbeat CPU 0 instructions: 1060000004 cycles: 777212817 heartbeat IPC: 0.872147 cumulative IPC: 0.858937 (Simulation time: 1 hr 4 min 35 sec) 
Heartbeat CPU 0 instructions: 1070000001 cycles: 788694609 heartbeat IPC: 0.870944 cumulative IPC: 0.859144 (Simulation time: 1 hr 5 min 15 sec) 
Heartbeat CPU 0 instructions: 1080000000 cycles: 800382477 heartbeat IPC: 0.855588 cumulative IPC: 0.859083 (Simulation time: 1 hr 5 min 51 sec) 
Heartbeat CPU 0 instructions: 1090000004 cycles: 811839938 heartbeat IPC: 0.872794 cumulative IPC: 0.859312 (Simulation time: 1 hr 6 min 26 sec) 
Heartbeat CPU 0 instructions: 1100000000 cycles: 823425756 heartbeat IPC: 0.863124 cumulative IPC: 0.859375 (Simulation time: 1 hr 7 min 2 sec) 
Heartbeat CPU 0 instructions: 1110000000 cycles: 834977555 heartbeat IPC: 0.865666 cumulative IPC: 0.859477 (Simulation time: 1 hr 7 min 37 sec) 
Heartbeat CPU 0 instructions: 1120000000 cycles: 846365509 heartbeat IPC: 0.878121 cumulative IPC: 0.859772 (Simulation time: 1 hr 8 min 12 sec) 
Heartbeat CPU 0 instructions: 1130000002 cycles: 857857909 heartbeat IPC: 0.87014 cumulative IPC: 0.859934 (Simulation time: 1 hr 8 min 46 sec) 
Heartbeat CPU 0 instructions: 1140000000 cycles: 869498429 heartbeat IPC: 0.859068 cumulative IPC: 0.859921 (Simulation time: 1 hr 9 min 21 sec) 
Heartbeat CPU 0 instructions: 1150000001 cycles: 881044057 heartbeat IPC: 0.866129 cumulative IPC: 0.860016 (Simulation time: 1 hr 9 min 56 sec) 
Heartbeat CPU 0 instructions: 1160000002 cycles: 892550688 heartbeat IPC: 0.869064 cumulative IPC: 0.860151 (Simulation time: 1 hr 10 min 31 sec) 
Heartbeat CPU 0 instructions: 1170000002 cycles: 904242272 heartbeat IPC: 0.855316 cumulative IPC: 0.860079 (Simulation time: 1 hr 11 min 6 sec) 
Heartbeat CPU 0 instructions: 1180000001 cycles: 915672607 heartbeat IPC: 0.874865 cumulative IPC: 0.860293 (Simulation time: 1 hr 11 min 41 sec) 
Heartbeat CPU 0 instructions: 1190000000 cycles: 927268359 heartbeat IPC: 0.862385 cumulative IPC: 0.860323 (Simulation time: 1 hr 12 min 17 sec) 
Heartbeat CPU 0 instructions: 1200000002 cycles: 938855060 heartbeat IPC: 0.863059 cumulative IPC: 0.860362 (Simulation time: 1 hr 12 min 53 sec) 
Heartbeat CPU 0 instructions: 1210000003 cycles: 950593094 heartbeat IPC: 0.851932 cumulative IPC: 0.860242 (Simulation time: 1 hr 13 min 28 sec) 
Heartbeat CPU 0 instructions: 1220000000 cycles: 962047661 heartbeat IPC: 0.873014 cumulative IPC: 0.860417 (Simulation time: 1 hr 14 min 3 sec) 
Heartbeat CPU 0 instructions: 1230000003 cycles: 973973829 heartbeat IPC: 0.838493 cumulative IPC: 0.860109 (Simulation time: 1 hr 14 min 46 sec) 
Heartbeat CPU 0 instructions: 1240000000 cycles: 985532139 heartbeat IPC: 0.865178 cumulative IPC: 0.860177 (Simulation time: 1 hr 15 min 24 sec) 
Heartbeat CPU 0 instructions: 1250000002 cycles: 996937092 heartbeat IPC: 0.876812 cumulative IPC: 0.860394 (Simulation time: 1 hr 16 min 1 sec) 
Heartbeat CPU 0 instructions: 1260000002 cycles: 1008704017 heartbeat IPC: 0.84984 cumulative IPC: 0.860254 (Simulation time: 1 hr 16 min 39 sec) 
Heartbeat CPU 0 instructions: 1270000001 cycles: 1020260353 heartbeat IPC: 0.865326 cumulative IPC: 0.860319 (Simulation time: 1 hr 17 min 17 sec) 
Heartbeat CPU 0 instructions: 1280000001 cycles: 1031899371 heartbeat IPC: 0.859179 cumulative IPC: 0.860305 (Simulation time: 1 hr 18 min 0 sec) 
Heartbeat CPU 0 instructions: 1290000002 cycles: 1043607226 heartbeat IPC: 0.854128 cumulative IPC: 0.860226 (Simulation time: 1 hr 18 min 36 sec) 
Heartbeat CPU 0 instructions: 1300000001 cycles: 1055102191 heartbeat IPC: 0.869946 cumulative IPC: 0.860346 (Simulation time: 1 hr 19 min 11 sec) 
Heartbeat CPU 0 instructions: 1310000000 cycles: 1066717421 heartbeat IPC: 0.860939 cumulative IPC: 0.860353 (Simulation time: 1 hr 19 min 47 sec) 
Heartbeat CPU 0 instructions: 1320000002 cycles: 1078468400 heartbeat IPC: 0.850993 cumulative IPC: 0.860238 (Simulation time: 1 hr 20 min 23 sec) 
Heartbeat CPU 0 instructions: 1330000001 cycles: 1090035315 heartbeat IPC: 0.864535 cumulative IPC: 0.86029 (Simulation time: 1 hr 21 min 0 sec) 
Heartbeat CPU 0 instructions: 1340000001 cycles: 1101631789 heartbeat IPC: 0.862331 cumulative IPC: 0.860314 (Simulation time: 1 hr 21 min 36 sec) 
Heartbeat CPU 0 instructions: 1350000002 cycles: 1112923938 heartbeat IPC: 0.885571 cumulative IPC: 0.860603 (Simulation time: 1 hr 22 min 12 sec) 
Heartbeat CPU 0 instructions: 1360000001 cycles: 1124609210 heartbeat IPC: 0.855778 cumulative IPC: 0.860546 (Simulation time: 1 hr 22 min 49 sec) 
Heartbeat CPU 0 instructions: 1370000003 cycles: 1136156100 heartbeat IPC: 0.866034 cumulative IPC: 0.860609 (Simulation time: 1 hr 23 min 25 sec) 
Heartbeat CPU 0 instructions: 1380000002 cycles: 1147911420 heartbeat IPC: 0.850679 cumulative IPC: 0.860495 (Simulation time: 1 hr 24 min 3 sec) 
Heartbeat CPU 0 instructions: 1390000001 cycles: 1159534666 heartbeat IPC: 0.860345 cumulative IPC: 0.860493 (Simulation time: 1 hr 24 min 39 sec) 
Heartbeat CPU 0 instructions: 1400000003 cycles: 1171085991 heartbeat IPC: 0.865702 cumulative IPC: 0.860551 (Simulation time: 1 hr 25 min 17 sec) 
Heartbeat CPU 0 instructions: 1410000004 cycles: 1182485855 heartbeat IPC: 0.877204 cumulative IPC: 0.86073 (Simulation time: 1 hr 25 min 54 sec) 
Heartbeat CPU 0 instructions: 1420000002 cycles: 1194012783 heartbeat IPC: 0.867534 cumulative IPC: 0.860803 (Simulation time: 1 hr 26 min 31 sec) 
Heartbeat CPU 0 instructions: 1430000002 cycles: 1205628915 heartbeat IPC: 0.860872 cumulative IPC: 0.860804 (Simulation time: 1 hr 27 min 7 sec) 
Heartbeat CPU 0 instructions: 1440000003 cycles: 1217200267 heartbeat IPC: 0.864203 cumulative IPC: 0.86084 (Simulation time: 1 hr 27 min 43 sec) 
Heartbeat CPU 0 instructions: 1450000000 cycles: 1228544083 heartbeat IPC: 0.881537 cumulative IPC: 0.861053 (Simulation time: 1 hr 28 min 21 sec) 
Heartbeat CPU 0 instructions: 1460000002 cycles: 1240084410 heartbeat IPC: 0.866527 cumulative IPC: 0.86111 (Simulation time: 1 hr 29 min 7 sec) 
Heartbeat CPU 0 instructions: 1470000002 cycles: 1251755494 heartbeat IPC: 0.856818 cumulative IPC: 0.861065 (Simulation time: 1 hr 29 min 44 sec) 
Heartbeat CPU 0 instructions: 1480000001 cycles: 1263389085 heartbeat IPC: 0.85958 cumulative IPC: 0.86105 (Simulation time: 1 hr 30 min 21 sec) 
Heartbeat CPU 0 instructions: 1490000004 cycles: 1275068233 heartbeat IPC: 0.856227 cumulative IPC: 0.861001 (Simulation time: 1 hr 31 min 6 sec) 
Heartbeat CPU 0 instructions: 1500000001 cycles: 1286439018 heartbeat IPC: 0.879447 cumulative IPC: 0.861182 (Simulation time: 1 hr 31 min 54 sec) 
Heartbeat CPU 0 instructions: 1510000004 cycles: 1298170138 heartbeat IPC: 0.852434 cumulative IPC: 0.861094 (Simulation time: 1 hr 32 min 51 sec) 
Heartbeat CPU 0 instructions: 1520000004 cycles: 1309522707 heartbeat IPC: 0.880858 cumulative IPC: 0.861284 (Simulation time: 1 hr 33 min 30 sec) 
Heartbeat CPU 0 instructions: 1530000004 cycles: 1321215867 heartbeat IPC: 0.855201 cumulative IPC: 0.861224 (Simulation time: 1 hr 34 min 10 sec) 
Heartbeat CPU 0 instructions: 1540000000 cycles: 1332823038 heartbeat IPC: 0.861536 cumulative IPC: 0.861227 (Simulation time: 1 hr 35 min 3 sec) 
Heartbeat CPU 0 instructions: 1550000000 cycles: 1344154486 heartbeat IPC: 0.8825 cumulative IPC: 0.861425 (Simulation time: 1 hr 35 min 39 sec) 
Heartbeat CPU 0 instructions: 1560000001 cycles: 1355827389 heartbeat IPC: 0.856685 cumulative IPC: 0.86138 (Simulation time: 1 hr 36 min 15 sec) 
Heartbeat CPU 0 instructions: 1570000000 cycles: 1367420921 heartbeat IPC: 0.86255 cumulative IPC: 0.861391 (Simulation time: 1 hr 36 min 51 sec) 
Heartbeat CPU 0 instructions: 1580000001 cycles: 1379112680 heartbeat IPC: 0.855303 cumulative IPC: 0.861334 (Simulation time: 1 hr 37 min 27 sec) 
Heartbeat CPU 0 instructions: 1590000000 cycles: 1390930175 heartbeat IPC: 0.846203 cumulative IPC: 0.861193 (Simulation time: 1 hr 38 min 4 sec) 
Heartbeat CPU 0 instructions: 1600000001 cycles: 1402542787 heartbeat IPC: 0.861133 cumulative IPC: 0.861192 (Simulation time: 1 hr 38 min 40 sec) 
Heartbeat CPU 0 instructions: 1610000000 cycles: 1414312965 heartbeat IPC: 0.849605 cumulative IPC: 0.861086 (Simulation time: 1 hr 39 min 15 sec) 
Heartbeat CPU 0 instructions: 1620000000 cycles: 1426088527 heartbeat IPC: 0.849216 cumulative IPC: 0.860979 (Simulation time: 1 hr 39 min 51 sec) 
Heartbeat CPU 0 instructions: 1630000002 cycles: 1437763383 heartbeat IPC: 0.856542 cumulative IPC: 0.86094 (Simulation time: 1 hr 40 min 27 sec) 
Heartbeat CPU 0 instructions: 1640000002 cycles: 1449424321 heartbeat IPC: 0.857564 cumulative IPC: 0.86091 (Simulation time: 1 hr 41 min 4 sec) 
Heartbeat CPU 0 instructions: 1650000004 cycles: 1461006138 heartbeat IPC: 0.863423 cumulative IPC: 0.860932 (Simulation time: 1 hr 41 min 40 sec) 
Heartbeat CPU 0 instructions: 1660000001 cycles: 1472455416 heartbeat IPC: 0.873417 cumulative IPC: 0.861038 (Simulation time: 1 hr 42 min 16 sec) 
Heartbeat CPU 0 instructions: 1670000000 cycles: 1484160324 heartbeat IPC: 0.854342 cumulative IPC: 0.86098 (Simulation time: 1 hr 42 min 52 sec) 
Heartbeat CPU 0 instructions: 1680000002 cycles: 1495629965 heartbeat IPC: 0.871867 cumulative IPC: 0.861071 (Simulation time: 1 hr 43 min 28 sec) 
Heartbeat CPU 0 instructions: 1690000002 cycles: 1507280520 heartbeat IPC: 0.858328 cumulative IPC: 0.861048 (Simulation time: 1 hr 44 min 3 sec) 
Heartbeat CPU 0 instructions: 1700000000 cycles: 1518686416 heartbeat IPC: 0.876739 cumulative IPC: 0.861176 (Simulation time: 1 hr 44 min 41 sec) 
Heartbeat CPU 0 instructions: 1710000001 cycles: 1530412748 heartbeat IPC: 0.852782 cumulative IPC: 0.861106 (Simulation time: 1 hr 45 min 27 sec) 
Heartbeat CPU 0 instructions: 1720000003 cycles: 1542164553 heartbeat IPC: 0.850933 cumulative IPC: 0.861022 (Simulation time: 1 hr 46 min 3 sec) 
Heartbeat CPU 0 instructions: 1730000001 cycles: 1553861042 heartbeat IPC: 0.854957 cumulative IPC: 0.860972 (Simulation time: 1 hr 46 min 39 sec) 
Heartbeat CPU 0 instructions: 1740000002 cycles: 1565439437 heartbeat IPC: 0.863678 cumulative IPC: 0.860994 (Simulation time: 1 hr 47 min 15 sec) 
Heartbeat CPU 0 instructions: 1750000000 cycles: 1576989538 heartbeat IPC: 0.865793 cumulative IPC: 0.861032 (Simulation time: 1 hr 47 min 51 sec) 
Heartbeat CPU 0 instructions: 1760000000 cycles: 1588648655 heartbeat IPC: 0.857698 cumulative IPC: 0.861006 (Simulation time: 1 hr 48 min 27 sec) 
Heartbeat CPU 0 instructions: 1770000000 cycles: 1600124797 heartbeat IPC: 0.871373 cumulative IPC: 0.861086 (Simulation time: 1 hr 49 min 3 sec) 
Heartbeat CPU 0 instructions: 1780000000 cycles: 1611724884 heartbeat IPC: 0.862063 cumulative IPC: 0.861094 (Simulation time: 1 hr 49 min 38 sec) 
Heartbeat CPU 0 instructions: 1790000000 cycles: 1623157264 heartbeat IPC: 0.874708 cumulative IPC: 0.861198 (Simulation time: 1 hr 50 min 13 sec) 
Heartbeat CPU 0 instructions: 1800000003 cycles: 1634687157 heartbeat IPC: 0.867311 cumulative IPC: 0.861245 (Simulation time: 1 hr 50 min 50 sec) 
Heartbeat CPU 0 instructions: 1810000001 cycles: 1646427904 heartbeat IPC: 0.851734 cumulative IPC: 0.861171 (Simulation time: 1 hr 51 min 25 sec) 
Heartbeat CPU 0 instructions: 1820000000 cycles: 1657967151 heartbeat IPC: 0.866608 cumulative IPC: 0.861212 (Simulation time: 1 hr 52 min 1 sec) 
Heartbeat CPU 0 instructions: 1830000002 cycles: 1669585818 heartbeat IPC: 0.860684 cumulative IPC: 0.861208 (Simulation time: 1 hr 52 min 37 sec) 
Heartbeat CPU 0 instructions: 1840000002 cycles: 1681025993 heartbeat IPC: 0.874112 cumulative IPC: 0.861303 (Simulation time: 1 hr 53 min 12 sec) 
Heartbeat CPU 0 instructions: 1850000000 cycles: 1692572972 heartbeat IPC: 0.866027 cumulative IPC: 0.861338 (Simulation time: 1 hr 54 min 16 sec) 
Heartbeat CPU 0 instructions: 1860000000 cycles: 1704090829 heartbeat IPC: 0.868217 cumulative IPC: 0.861388 (Simulation time: 1 hr 55 min 5 sec) 
Heartbeat CPU 0 instructions: 1870000001 cycles: 1715674217 heartbeat IPC: 0.863305 cumulative IPC: 0.861402 (Simulation time: 1 hr 55 min 40 sec) 
Heartbeat CPU 0 instructions: 1880000000 cycles: 1727046986 heartbeat IPC: 0.879293 cumulative IPC: 0.861529 (Simulation time: 1 hr 56 min 16 sec) 
Heartbeat CPU 0 instructions: 1890000000 cycles: 1738390043 heartbeat IPC: 0.881597 cumulative IPC: 0.86167 (Simulation time: 1 hr 56 min 51 sec) 
Heartbeat CPU 0 instructions: 1900000002 cycles: 1749880778 heartbeat IPC: 0.870266 cumulative IPC: 0.861731 (Simulation time: 1 hr 57 min 26 sec) 
Heartbeat CPU 0 instructions: 1910000004 cycles: 1761411485 heartbeat IPC: 0.86725 cumulative IPC: 0.86177 (Simulation time: 1 hr 58 min 1 sec) 
Heartbeat CPU 0 instructions: 1920000000 cycles: 1772854898 heartbeat IPC: 0.873865 cumulative IPC: 0.861854 (Simulation time: 1 hr 58 min 37 sec) 
Heartbeat CPU 0 instructions: 1930000000 cycles: 1784455165 heartbeat IPC: 0.862049 cumulative IPC: 0.861855 (Simulation time: 1 hr 59 min 12 sec) 
Heartbeat CPU 0 instructions: 1940000000 cycles: 1796042196 heartbeat IPC: 0.863034 cumulative IPC: 0.861863 (Simulation time: 1 hr 59 min 48 sec) 
Heartbeat CPU 0 instructions: 1950000003 cycles: 1807764658 heartbeat IPC: 0.853063 cumulative IPC: 0.861802 (Simulation time: 2 hr 0 min 24 sec) 
Heartbeat CPU 0 instructions: 1960000004 cycles: 1819647907 heartbeat IPC: 0.841521 cumulative IPC: 0.86166 (Simulation time: 2 hr 0 min 59 sec) 
Heartbeat CPU 0 instructions: 1970000003 cycles: 1831307195 heartbeat IPC: 0.857685 cumulative IPC: 0.861633 (Simulation time: 2 hr 1 min 35 sec) 
Heartbeat CPU 0 instructions: 1980000001 cycles: 1843043581 heartbeat IPC: 0.852051 cumulative IPC: 0.861567 (Simulation time: 2 hr 2 min 11 sec) 
Heartbeat CPU 0 instructions: 1990000002 cycles: 1854687393 heartbeat IPC: 0.858825 cumulative IPC: 0.861549 (Simulation time: 2 hr 2 min 46 sec) 
*** Reached end of trace: traces/458.sjeng-767B.champsimtrace.xz
Heartbeat CPU 0 instructions: 2000000000 cycles: 1866307835 heartbeat IPC: 0.860552 cumulative IPC: 0.861542 (Simulation time: 2 hr 3 min 22 sec) 
Finished CPU 0 instructions: 1500000004 cycles: 1741064000 cumulative IPC: 0.861542 (Simulation time: 2 hr 3 min 22 sec) 

ChampSim completed all CPUs

Region of Interest Statistics

CPU 0 cumulative IPC: 0.861542 instructions: 1500000004 cycles: 1741064000
cpu0_DTLB TOTAL     ACCESS:  324045392  HIT:  321262352  MISS:    2783040
cpu0_DTLB LOAD      ACCESS:  251502425  HIT:  249146117  MISS:    2356308
cpu0_DTLB RFO       ACCESS:   72542967  HIT:   72116235  MISS:     426732
cpu0_DTLB PREFETCH  ACCESS:          0  HIT:          0  MISS:          0
cpu0_DTLB WRITEBACK ACCESS:          0  HIT:          0  MISS:          0
cpu0_DTLB TRANSLATION ACCESS:          0  HIT:          0  MISS:          0
cpu0_DTLB PREFETCH  REQUESTED:          0  ISSUED:          0  USEFUL:          0  USELESS:          0
cpu0_DTLB AVERAGE MISS LATENCY: 10.7827 cycles
cpu0_ITLB TOTAL     ACCESS:  145153506  HIT:  145153506  MISS:          0
cpu0_ITLB LOAD      ACCESS:  145153506  HIT:  145153506  MISS:          0
cpu0_ITLB RFO       ACCESS:          0  HIT:          0  MISS:          0
cpu0_ITLB PREFETCH  ACCESS:          0  HIT:          0  MISS:          0
cpu0_ITLB WRITEBACK ACCESS:          0  HIT:          0  MISS:          0
cpu0_ITLB TRANSLATION ACCESS:          0  HIT:          0  MISS:          0
cpu0_ITLB PREFETCH  REQUESTED:          0  ISSUED:          0  USEFUL:          0  USELESS:          0
cpu0_ITLB AVERAGE MISS LATENCY: -nan cycles
cpu0_L1I TOTAL     ACCESS:  102108144  HIT:  102065676  MISS:      42468
cpu0_L1I LOAD      ACCESS:  102108144  HIT:  102065676  MISS:      42468
cpu0_L1I RFO       ACCESS:          0  HIT:          0  MISS:          0
cpu0_L1I PREFETCH  ACCESS:          0  HIT:          0  MISS:          0
cpu0_L1I WRITEBACK ACCESS:          0  HIT:          0  MISS:          0
cpu0_L1I TRANSLATION ACCESS:          0  HIT:          0  MISS:          0
cpu0_L1I PREFETCH  REQUESTED:          0  ISSUED:          0  USEFUL:          0  USELESS:          0
cpu0_L1I AVERAGE MISS LATENCY: 13.8319 cycles
cpu0_STLB TOTAL     ACCESS:    2783040  HIT:    2279926  MISS:     503114
cpu0_STLB LOAD      ACCESS:    2356308  HIT:    1856002  MISS:     500306
cpu0_STLB RFO       ACCESS:     426732  HIT:     423924  MISS:       2808
cpu0_STLB PREFETCH  ACCESS:          0  HIT:          0  MISS:          0
cpu0_STLB WRITEBACK ACCESS:          0  HIT:          0  MISS:          0
cpu0_STLB TRANSLATION ACCESS:          0  HIT:          0  MISS:          0
cpu0_STLB PREFETCH  REQUESTED:          0  ISSUED:          0  USEFUL:          0  USELESS:          0
cpu0_STLB AVERAGE MISS LATENCY: 9.79414 cycles
cpu0_L1D TOTAL     ACCESS:  385700828  HIT:  384676719  MISS:    1024109
cpu0_L1D LOAD      ACCESS:  261710908  HIT:  260901347  MISS:     809561
cpu0_L1D RFO       ACCESS:  123486847  HIT:  123277107  MISS:     209740
cpu0_L1D PREFETCH  ACCESS:          0  HIT:          0  MISS:          0
cpu0_L1D WRITEBACK ACCESS:          0  HIT:          0  MISS:          0
cpu0_L1D TRANSLATION ACCESS:     503073  HIT:     498265  MISS:       4808
cpu0_L1D PREFETCH  REQUESTED:          0  ISSUED:          0  USEFUL:          0  USELESS:          0
cpu0_L1D AVERAGE MISS LATENCY: 113.111 cycles
cpu0_L2C TOTAL     ACCESS:    1729054  HIT:    1129708  MISS:     599346
cpu0_L2C LOAD      ACCESS:     852024  HIT:     296930  MISS:     555094
cpu0_L2C RFO       ACCESS:     209710  HIT:     167263  MISS:      42447
cpu0_L2C PREFETCH  ACCESS:          0  HIT:          0  MISS:          0
cpu0_L2C WRITEBACK ACCESS:     662512  HIT:     660835  MISS:       1677
cpu0_L2C TRANSLATION ACCESS:       4808  HIT:       4680  MISS:        128
cpu0_L2C PREFETCH  REQUESTED:          0  ISSUED:          0  USEFUL:          0  USELESS:          0
cpu0_L2C AVERAGE MISS LATENCY: 174.658 cycles
LLC TOTAL     ACCESS:    1065204  HIT:     499579  MISS:     565625
LLC LOAD      ACCESS:     555094  HIT:      28407  MISS:     526687
LLC RFO       ACCESS:      42447  HIT:       5815  MISS:      36632
LLC PREFETCH  ACCESS:          0  HIT:          0  MISS:          0
LLC WRITEBACK ACCESS:     467535  HIT:     465275  MISS:       2260
LLC TRANSLATION ACCESS:        128  HIT:         82  MISS:         46
LLC PREFETCH  REQUESTED:          0  ISSUED:          0  USEFUL:          0  USELESS:          0
LLC AVERAGE MISS LATENCY: 162.881 cycles
~~~~~~~~~~Reuse Distance Profiler output~~~~~~~~~~
0	72268144	21259824
1	43484864	22338912
2	30238912	18264576
3	23680112	16070576
4	19529360	13620160
5	15003744	10940608
6	12929840	8838320
7	11271072	8057856
8	10693232	7861600
9	10000304	7444208
10	8994288	6914816
11	7937696	6069152
12	7910784	5886224
13	6934208	5042464
14	6248144	4611968
15	5678752	4171664
16	5424944	4303728
17	5141392	4101760
18	5047568	3966784
19	4860368	3792416
20	4926368	3792736
21	4731440	3876400
22	4866656	4004352
23	4748560	3901616
24	4715344	4018704
25	4616080	3943936
26	4635616	3983488
27	4167008	3484816
28	3898880	3277376
29	3428832	2845536
30	3454112	2837632
31	2848688	2265696
32	2778256	2232624
33	2824528	2282976
34	2614336	2090032
35	2283888	1828976
36	2153984	1738256
37	1955072	1540512
38	1812864	1412944
39	1759520	1379136
40	1569040	1252320
41	1473904	1153360
42	1420096	1082864
43	1276128	985440
44	1213568	932608
45	1166096	887552
46	1113696	799920
47	1044304	760144
48	1142160	842480
49	1062576	791456
50	1023776	788192
51	1008672	774096
52	1136624	889216
53	1021824	800272
54	1012160	794464
55	1044864	807584
56	1040224	806800
57	1103504	831408
58	1035776	792992
59	1027952	785200
60	1069008	812832
61	1015104	771760
62	974976	754720
63	994128	709840
64	1772176	1346544
66	1649840	1243776
68	1509936	1120352
70	1395824	1018624
72	1295072	930688
74	1223424	880640
76	1133344	833808
78	1069136	798752
80	986368	744640
82	998128	743424
84	967568	727280
86	925088	690128
88	874032	653232
90	902000	686032
92	853008	658608
94	852128	642448
96	811040	621872
98	801168	611024
100	753648	592320
102	708368	582992
104	733072	624576
106	704896	610768
108	696496	614736
110	707584	628576
112	691408	623024
114	652064	583440
116	646096	577584
118	588224	517392
120	531056	457040
122	524752	435456
124	514992	431200
126	528896	443744
128	1021840	841552
132	927216	757680
136	848000	706848
140	861824	739536
144	944032	815168
148	954832	811776
152	981824	826416
156	936944	781824
160	867024	713824
164	744544	604336
168	612144	490416
172	546784	423136
176	495696	387648
180	457872	372848
184	441376	366464
188	440448	362112
192	468464	389296
196	481744	403280
200	497520	421216
204	492208	424144
208	490512	417872
212	463520	390272
216	439696	369824
220	411616	350464
224	389088	334080
228	386608	337472
232	365760	321920
236	356416	317088
240	334800	298240
244	324064	290576
248	315248	283264
252	294960	261424
256	489712	413392
264	407888	325328
272	378320	301776
280	372976	308608
288	379648	327664
296	392912	342976
304	380480	327168
312	364000	303008
320	341600	278080
328	324288	270176
336	301728	256176
344	280832	245216
352	275776	239920
360	267264	232608
368	275824	239536
376	280944	243664
384	266016	226704
392	254448	215232
400	250112	210752
408	245712	209232
416	259792	222256
424	268576	232384
432	264736	227968
440	259776	223952
448	264608	226400
456	257248	219504
464	232160	192032
472	226480	184272
480	223856	182416
488	212880	171056
496	204768	164816
504	197600	160880
512	406976	340864
528	431552	372176
544	420400	369488
560	367488	324400
576	334608	298720
592	327600	297376
608	314048	286992
624	305920	280448
640	283664	257360
656	263840	236912
672	260048	232160
688	254672	225888
704	242496	206656
720	233504	194624
736	240160	195856
752	248304	201776
768	253856	209760
784	262704	223968
800	272864	236784
816	283680	249312
832	304400	271296
848	340288	308256
864	395616	356368
880	442864	396240
896	489296	436944
912	490816	433696
928	470400	412960
944	433456	377104
960	389648	336192
976	349536	295792
992	320624	269536
1008	302576	255712
1024	598688	522912
1056	562176	496640
1088	589040	503984
1120	808080	693696
1152	1054304	934896
1184	755200	678704
1216	426288	383984
1248	355824	322544
1280	368512	334160
1312	392528	353424
1344	427872	379792
1376	432000	383200
1408	417920	362352
1440	417408	358592
1472	425728	367872
1504	456416	398320
1536	476064	418912
1568	506960	450528
1600	520112	462512
1632	548048	486064
1664	574112	506688
1696	582944	507808
1728	596256	511328
1760	607072	514256
1792	602832	508848
1824	593888	499840
1856	586208	497200
1888	557504	477264
1920	573536	502624
1952	552416	487760
1984	469280	408896
2016	418432	363312
2048	758336	661168
2112	607968	527664
2176	510704	440960
2240	419008	356720
2304	380320	326752
2368	330704	282592
2432	282112	238064
2496	267504	227488
2560	234160	199216
2624	210896	177984
2688	203056	171152
2752	186384	154224
2816	180864	148656
2880	161040	131264
2944	153472	123296
3008	143312	116320
3072	131264	105712
3136	125216	102080
3200	122464	98992
3264	125072	102432
3328	124000	100176
3392	124592	102912
3456	124896	101584
3520	122256	98160
3584	121408	97424
3648	119504	96128
3712	118272	95312
3776	110704	87520
3840	103168	80976
3904	100160	78224
3968	89376	69536
4032	83904	64240
4096	154592	118832
4224	143440	109792
4352	136976	105088
4480	139472	108224
4608	145104	112176
4736	143104	111216
4864	139280	107760
4992	137552	105648
5120	134576	103296
5248	133632	101600
5376	121952	92944
5504	114560	89120
5632	104000	80096
5760	98880	76480
5888	93152	73776
6016	87808	68160
6144	82384	63392
6272	80816	61872
6400	77184	58544
6528	72064	55248
6656	74112	58384
6784	69424	53984
6912	71648	57184
7040	70832	55424
7168	67168	52768
7296	66912	52752
7424	63312	49952
7552	59952	46496
7680	60640	47648
7808	58720	45696
7936	55760	43312
8064	52352	40256
8192	100704	77648
8448	95984	72960
8704	91392	68512
8960	84496	62560
9216	78752	58704
9472	80000	59968
9728	75136	55984
9984	69584	52208
10240	65488	48336
10496	63184	46080
10752	57488	41248
11008	56064	40832
11264	53808	38688
11520	52896	37840
11776	49856	35504
12032	47920	33888
12288	45408	32144
12544	44800	31152
12800	43936	30976
13056	42432	29664
13312	40576	28640
13568	38528	26448
13824	38976	28112
14080	37616	26560
14336	36032	25248
14592	36016	25728
14848	32432	22640
15104	32496	22448
15360	32112	21696
15616	29040	20432
15872	28672	19472
16128	28208	19200
16384	55600	37088
16896	52544	35120
17408	50752	33584
17920	49424	33344
18432	45760	31152
18944	42048	28672
19456	39760	27248
19968	40240	27344
20480	36864	25472
20992	33072	22480
21504	33296	22544
22016	32912	21664
22528	31296	20912
23040	28208	18176
23552	29520	19680
24064	29248	19440
24576	26704	17536
25088	26176	17184
25600	24752	16272
26112	24960	16896
26624	22928	14912
27136	22384	14192
27648	21824	14144
28160	20352	12720
28672	20256	13040
29184	19200	12400
29696	18912	12208
30208	17152	10880
30720	18080	11120
31232	18048	11616
31744	15856	10240
32256	17616	11088
32768	32720	20224
33792	30240	18688
34816	27600	17680
35840	27200	16496
36864	26368	16688
37888	25536	16032
38912	23984	15168
39936	23120	14464
40960	21504	13264
41984	22032	14240
43008	21520	13104
44032	18912	11360
45056	20080	12992
46080	19536	12704
47104	18864	12048
48128	19568	12896
49152	18192	11952
50176	18976	12224
51200	18272	11312
52224	15744	9792
53248	16800	10048
54272	16640	10816
55296	16320	9952
56320	16160	10000
57344	15984	10176
58368	14064	8736
59392	13856	8784
60416	12704	7760
61440	13440	8672
62464	12608	8048
63488	12416	8064
64512	12608	8320
65536	22272	13712
67584	23664	14576
69632	21888	12784
71680	19536	12512
73728	19312	12640
75776	17552	10624
77824	15072	9328
79872	15920	9552
81920	14464	9120
83968	14736	8912
86016	14176	9088
88064	14544	9088
90112	12416	7824
92160	11248	6704
94208	11952	7008
96256	12128	7664
98304	10864	6400
100352	10528	6448
102400	10288	6496
104448	10000	6304
106496	9456	5984
108544	8960	5184
110592	8992	5824
112640	8320	5232
114688	8080	4816
116736	8496	5456
118784	8368	4864
120832	8032	5120
122880	8144	4896
124928	7344	4416
126976	7232	4496
129024	6784	3968
131072	14416	8816
135168	13008	7840
139264	11712	7264
143360	11072	6384
147456	10144	6080
151552	9488	5744
155648	10128	6096
159744	9248	5664
163840	8496	5472
167936	8224	5152
172032	7568	4608
176128	7376	4352
180224	7008	4432
184320	6640	4208
188416	6960	4416
192512	5952	3680
196608	5984	3664
200704	5792	3440
204800	4784	2944
208896	5168	3200
212992	5392	3200
217088	5264	3056
221184	5168	3024
225280	5200	3232
229376	4768	3040
233472	4176	2688
237568	4016	2384
241664	4288	2528
245760	3472	2144
249856	3840	2416
253952	3760	2096
258048	3664	2192
262144	6272	3584
270336	6448	3568
278528	5824	3744
286720	5680	3520
294912	5792	3456
303104	5728	3616
311296	4768	2880
319488	4720	2896
327680	4288	2880
335872	4096	2384
344064	4192	2576
352256	3888	2432
360448	3840	2400
368640	3248	2224
376832	3616	2016
385024	3168	2224
393216	3280	1936
401408	2960	1728
409600	3104	1856
417792	3088	1696
425984	2640	1696
434176	2736	1648
442368	2624	1776
450560	2352	1584
458752	2672	1824
466944	2288	1296
475136	1808	1296
483328	2192	1424
491520	2080	1424
499712	2000	1312
507904	1968	1232
516096	2192	1408
524288	3872	2464
540672	3280	2160
557056	3664	2144
573440	2912	1744
589824	2688	1744
606208	2688	1744
622592	2912	1728
638976	2672	1712
655360	2304	1360
671744	2896	1632
688128	2160	1376
704512	2112	1248
720896	2208	1424
737280	2224	1168
753664	2352	1456
770048	1984	1152
786432	1568	1072
802816	2000	1376
819200	1632	992
835584	1488	1040
851968	1936	1184
868352	1744	1328
884736	1936	1408
901120	1840	1312
917504	1632	1008
933888	1744	1296
950272	1488	880
966656	1632	1120
983040	1456	944
999424	1296	976
1015808	1056	656
1032192	1088	752
1048576	2080	1392
1081344	2400	1776
1114112	2192	1344
1146880	2192	1520
1179648	2016	1408
1212416	1744	1200
1245184	1504	1008
1277952	1664	1248
1310720	1632	1040
1343488	1264	944
1376256	1232	816
1409024	1776	1168
1441792	1456	1008
1474560	1504	960
1507328	1408	1120
1540096	1248	800
1572864	1040	704
1605632	1120	832
1638400	1024	656
1671168	1360	944
1703936	1152	688
1736704	992	736
1769472	1104	816
1802240	1200	848
1835008	816	704
1867776	928	576
1900544	960	656
1933312	896	560
1966080	864	608
1998848	816	576
2031616	1040	800
2064384	864	592
2097152	1488	1168
2162688	1824	1232
2228224	1968	1152
2293760	1168	896
2359296	1104	736
2424832	1232	928
2490368	928	720
2555904	1136	800
2621440	1088	800
2686976	1072	848
2752512	864	768
2818048	848	544
2883584	672	544
2949120	736	528
3014656	720	480
3080192	832	688
3145728	816	560
3211264	800	496
3276800	768	544
3342336	992	720
3407872	608	464
3473408	736	544
3538944	560	496
3604480	592	448
3670016	464	336
3735552	464	400
3801088	768	448
3866624	416	320
3932160	512	400
3997696	336	224
4063232	448	416
4128768	480	336
4194304	784	560
4325376	1216	960
4456448	816	592
4587520	688	512
4718592	912	704
4849664	656	496
4980736	624	512
5111808	800	592
5242880	640	560
5373952	768	608
5505024	736	624
5636096	608	480
5767168	448	384
5898240	656	496
6029312	816	592
6160384	704	576
6291456	544	352
6422528	624	480
6553600	544	432
6684672	448	368
6815744	464	416
6946816	496	304
7077888	416	320
7208960	688	528
7340032	416	352
7471104	480	416
7602176	400	352
7733248	480	432
7864320	432	352
7995392	352	288
8126464	368	288
8257536	576	416
8388608	688	640
8650752	752	672
8912896	544	448
9175040	912	752
9437184	736	640
9699328	464	384
9961472	656	624
10223616	656	544
10485760	656	528
10747904	688	592
11010048	304	256
11272192	464	416
11534336	576	480
11796480	672	624
12058624	464	400
12320768	672	512
12582912	592	464
12845056	752	656
13107200	400	368
13369344	480	416
13631488	496	416
13893632	464	464
14155776	592	496
14417920	640	592
14680064	448	384
14942208	576	480
15204352	432	320
15466496	448	416
15728640	432	400
15990784	512	400
16252928	320	288
16515072	272	224
16777216	672	592
17301504	848	800
17825792	624	544
18350080	608	576
18874368	1008	912
19398656	832	816
19922944	704	656
20447232	640	592
20971520	560	528
21495808	640	640
22020096	688	656
22544384	528	480
23068672	912	832
23592960	688	592
24117248	720	656
24641536	400	352
25165824	608	528
25690112	768	720
26214400	464	416
26738688	592	528
27262976	832	800
27787264	624	560
28311552	784	720
28835840	560	528
29360128	656	608
29884416	720	640
30408704	464	384
30932992	624	560
31457280	576	544
31981568	720	624
32505856	576	480
33030144	560	496
33554432	1040	944
34603008	1152	1040
35651584	1136	1008
36700160	912	848
37748736	1136	976
38797312	832	816
39845888	896	880
40894464	816	688
41943040	1104	1040
42991616	1024	1008
44040192	960	880
45088768	1040	976
46137344	848	768
47185920	768	752
48234496	976	912
49283072	896	800
50331648	864	768
51380224	832	720
52428800	576	528
53477376	832	784
54525952	928	832
55574528	864	800
56623104	864	800
57671680	736	672
58720256	512	448
59768832	864	768
60817408	928	832
61865984	656	608
62914560	912	848
63963136	912	800
65011712	720	656
66060288	656	576
67108864	1392	1248
69206016	1440	1312
71303168	1440	1248
73400320	1616	1472
75497472	1760	1712
77594624	1568	1376
79691776	1488	1360
81788928	1296	1120
83886080	1616	1488
85983232	1424	1312
88080384	1584	1504
90177536	1376	1232
92274688	1440	1264
94371840	1600	1424
96468992	1264	1120
98566144	1312	1136
100663296	1440	1408
102760448	1264	1200
104857600	1392	1264
106954752	1568	1472
109051904	1216	1104
111149056	1072	976
113246208	1152	1088
115343360	1328	1280
117440512	1328	1264
119537664	1136	1024
121634816	1184	1152
123731968	1040	944
125829120	1168	1104
127926272	1008	944
130023424	1072	928
132120576	1248	1104
134217728	2096	1920
138412032	1712	1568
142606336	1888	1728
146800640	2080	1952
150994944	1968	1680
155189248	2080	1952
159383552	1872	1664
163577856	1888	1744
167772160	1472	1344
171966464	1712	1568
176160768	1600	1552
180355072	1648	1520
184549376	1408	1296
188743680	1696	1600
192937984	1504	1296
197132288	1248	1104
201326592	1440	1312
205520896	1328	1184
209715200	1328	1232
213909504	1552	1376
218103808	1360	1184
222298112	1312	1216
226492416	1120	1088
230686720	1264	1184
234881024	1136	1088
239075328	1344	1264
243269632	1488	1408
247463936	1072	1008
251658240	1136	1072
255852544	992	912
260046848	1168	1088
264241152	1280	1152
268435456	1904	1744
276824064	2160	1968
285212672	2160	2000
293601280	1504	1328
301989888	1792	1568
310378496	1424	1280
318767104	1712	1536
327155712	1504	1376
335544320	1248	1184
343932928	1152	1072
352321536	1200	1088
360710144	1184	1168
369098752	1184	1056
377487360	928	816
385875968	912	848
394264576	864	832
402653184	560	528
411041792	560	528
419430400	608	560
427819008	576	544
436207616	528	480
444596224	416	368
452984832	304	272
461373440	224	224
469762048	240	192
478150656	144	144
486539264	80	80
494927872	96	96
503316480	0	0
511705088	0	0
520093696	0	0
528482304	0	0
536870912	0	0
553648128	0	0
570425344	0	0
587202560	0	0
603979776	0	0
620756992	0	0
637534208	0	0
654311424	0	0
671088640	0	0
687865856	0	0
704643072	0	0
721420288	0	0
738197504	0	0
754974720	0	0
771751936	0	0
788529152	0	0
805306368	0	0
822083584	0	0
838860800	0	0
855638016	0	0
872415232	0	0
889192448	0	0
905969664	0	0
922746880	0	0
939524096	0	0
956301312	0	0
973078528	0	0
989855744	0	0
1006632960	0	0
1023410176	0	0
1040187392	0	0
1056964608	0	0
1073741824	0	0
1107296256	0	0
1140850688	0	0
1174405120	0	0
1207959552	0	0
1241513984	0	0
1275068416	0	0
1308622848	0	0
1342177280	0	0
1375731712	0	0
1409286144	0	0
1442840576	0	0
1476395008	0	0
1509949440	0	0
1543503872	0	0
1577058304	0	0
1610612736	0	0
1644167168	0	0
1677721600	0	0
1711276032	0	0
1744830464	0	0
1778384896	0	0
1811939328	0	0
1845493760	0	0
1879048192	0	0
1912602624	0	0
1946157056	0	0
1979711488	0	0
2013265920	0	0
2046820352	0	0
2080374784	0	0
2113929216	0	0
2147483648	0	0
2214592512	0	0
2281701376	0	0
2348810240	0	0
2415919104	0	0
2483027968	0	0
2550136832	0	0
2617245696	0	0
2684354560	0	0
2751463424	0	0
2818572288	0	0
2885681152	0	0
2952790016	0	0
3019898880	0	0
3087007744	0	0
3154116608	0	0
3221225472	0	0
3288334336	0	0
3355443200	0	0
3422552064	0	0
3489660928	0	0
3556769792	0	0
3623878656	0	0
3690987520	0	0
3758096384	0	0
3825205248	0	0
3892314112	0	0
3959422976	0	0
4026531840	0	0
4093640704	0	0
4160749568	0	0
4227858432	0	0
~~~~~~~~~~Reuse Distance Profiler output end~~~~~~~~~~

DRAM Statistics
 CHANNEL 0
 RQ ROW_BUFFER_HIT:        268  ROW_BUFFER_MISS:     563094
 DBUS AVG_CONGESTED_CYCLE:    3.68871
 WQ ROW_BUFFER_HIT:      29303  ROW_BUFFER_MISS:     423370  FULL:          0


CPU 0 Branch Prediction Accuracy: 85.9123% MPKI: 30.9856 Average ROB Occupancy at Mispredict: 17.2509
Branch type MPKI
BRANCH_DIRECT_JUMP: 2.66667e-06
BRANCH_INDIRECT: 1.05583
BRANCH_CONDITIONAL: 29.5904
BRANCH_DIRECT_CALL: 0
BRANCH_INDIRECT_CALL: 0.339308
BRANCH_RETURN: 4e-06

