
*** ChampSim Multicore Out-of-Order Simulator ***

Warmup Instructions: 500000000
Simulation Instructions: 1500000000
Number of CPUs: 1
Off-chip DRAM Size: 4 GiB Channels: 1 Width: 64-bit Data Rate: 3200 MT/s

VirtualMemory physical capacity: 8588881920 num_ppages: 2096895
VirtualMemory page size: 4096 log2_page_size: 12

CPU 0 runs traces/458.sjeng-31B.champsimtrace.xz
CPU 0 Bimodal branch predictor
Basic BTB sets: 1024 ways: 8 indirect buffer size: 4096 RAS size: 64
Initializing LRU.
Initializing LRU.
Initializing LRU.
Initializing LRU.
Initializing rdLRU.
Initializing LRU.
Initializing LRU.
Heartbeat CPU 0 instructions: 10000001 cycles: 2503031 heartbeat IPC: 3.99516 cumulative IPC: 3.99516 (Simulation time: 0 hr 0 min 34 sec) 
Heartbeat CPU 0 instructions: 20000000 cycles: 5005083 heartbeat IPC: 3.99672 cumulative IPC: 3.99594 (Simulation time: 0 hr 1 min 6 sec) 
Heartbeat CPU 0 instructions: 30000001 cycles: 7508546 heartbeat IPC: 3.99447 cumulative IPC: 3.99545 (Simulation time: 0 hr 1 min 39 sec) 
Heartbeat CPU 0 instructions: 40000002 cycles: 10016972 heartbeat IPC: 3.98656 cumulative IPC: 3.99322 (Simulation time: 0 hr 2 min 10 sec) 
Heartbeat CPU 0 instructions: 50000003 cycles: 12521308 heartbeat IPC: 3.99307 cumulative IPC: 3.99319 (Simulation time: 0 hr 2 min 42 sec) 
Heartbeat CPU 0 instructions: 60000002 cycles: 15022655 heartbeat IPC: 3.99785 cumulative IPC: 3.99397 (Simulation time: 0 hr 3 min 13 sec) 
Heartbeat CPU 0 instructions: 70000000 cycles: 17527467 heartbeat IPC: 3.99231 cumulative IPC: 3.99373 (Simulation time: 0 hr 3 min 45 sec) 
Heartbeat CPU 0 instructions: 80000002 cycles: 20030448 heartbeat IPC: 3.99524 cumulative IPC: 3.99392 (Simulation time: 0 hr 4 min 16 sec) 
Heartbeat CPU 0 instructions: 90000001 cycles: 22531534 heartbeat IPC: 3.99826 cumulative IPC: 3.9944 (Simulation time: 0 hr 4 min 48 sec) 
Heartbeat CPU 0 instructions: 100000000 cycles: 25033524 heartbeat IPC: 3.99682 cumulative IPC: 3.99464 (Simulation time: 0 hr 5 min 28 sec) 
Heartbeat CPU 0 instructions: 110000001 cycles: 27535331 heartbeat IPC: 3.99711 cumulative IPC: 3.99487 (Simulation time: 0 hr 6 min 7 sec) 
Heartbeat CPU 0 instructions: 120000003 cycles: 30040807 heartbeat IPC: 3.99126 cumulative IPC: 3.99457 (Simulation time: 0 hr 6 min 43 sec) 
Heartbeat CPU 0 instructions: 130000002 cycles: 32543077 heartbeat IPC: 3.99637 cumulative IPC: 3.99471 (Simulation time: 0 hr 7 min 32 sec) 
Heartbeat CPU 0 instructions: 140000000 cycles: 35046926 heartbeat IPC: 3.99385 cumulative IPC: 3.99464 (Simulation time: 0 hr 8 min 28 sec) 
Heartbeat CPU 0 instructions: 150000000 cycles: 37550857 heartbeat IPC: 3.99372 cumulative IPC: 3.99458 (Simulation time: 0 hr 9 min 23 sec) 
Heartbeat CPU 0 instructions: 160000001 cycles: 40054690 heartbeat IPC: 3.99388 cumulative IPC: 3.99454 (Simulation time: 0 hr 10 min 1 sec) 
Heartbeat CPU 0 instructions: 170000000 cycles: 42558830 heartbeat IPC: 3.99339 cumulative IPC: 3.99447 (Simulation time: 0 hr 10 min 36 sec) 
Heartbeat CPU 0 instructions: 180000000 cycles: 45062067 heartbeat IPC: 3.99483 cumulative IPC: 3.99449 (Simulation time: 0 hr 11 min 13 sec) 
Heartbeat CPU 0 instructions: 190000000 cycles: 47564656 heartbeat IPC: 3.99586 cumulative IPC: 3.99456 (Simulation time: 0 hr 11 min 45 sec) 
Heartbeat CPU 0 instructions: 200000002 cycles: 50067049 heartbeat IPC: 3.99618 cumulative IPC: 3.99464 (Simulation time: 0 hr 12 min 17 sec) 
Heartbeat CPU 0 instructions: 210000001 cycles: 52572592 heartbeat IPC: 3.99115 cumulative IPC: 3.99448 (Simulation time: 0 hr 12 min 49 sec) 
Heartbeat CPU 0 instructions: 220000003 cycles: 55077190 heartbeat IPC: 3.99266 cumulative IPC: 3.99439 (Simulation time: 0 hr 13 min 23 sec) 
Heartbeat CPU 0 instructions: 230000001 cycles: 57582952 heartbeat IPC: 3.9908 cumulative IPC: 3.99424 (Simulation time: 0 hr 14 min 2 sec) 
Heartbeat CPU 0 instructions: 240000002 cycles: 60086055 heartbeat IPC: 3.99504 cumulative IPC: 3.99427 (Simulation time: 0 hr 14 min 49 sec) 
Heartbeat CPU 0 instructions: 250000002 cycles: 62591124 heartbeat IPC: 3.99191 cumulative IPC: 3.99418 (Simulation time: 0 hr 15 min 24 sec) 
Heartbeat CPU 0 instructions: 260000003 cycles: 65093075 heartbeat IPC: 3.99688 cumulative IPC: 3.99428 (Simulation time: 0 hr 15 min 58 sec) 
Heartbeat CPU 0 instructions: 270000003 cycles: 67596024 heartbeat IPC: 3.99529 cumulative IPC: 3.99432 (Simulation time: 0 hr 16 min 32 sec) 
Heartbeat CPU 0 instructions: 280000002 cycles: 70101641 heartbeat IPC: 3.99103 cumulative IPC: 3.9942 (Simulation time: 0 hr 17 min 14 sec) 
Heartbeat CPU 0 instructions: 290000002 cycles: 72608321 heartbeat IPC: 3.98934 cumulative IPC: 3.99403 (Simulation time: 0 hr 18 min 1 sec) 
Heartbeat CPU 0 instructions: 300000001 cycles: 75114720 heartbeat IPC: 3.98979 cumulative IPC: 3.99389 (Simulation time: 0 hr 18 min 38 sec) 
Heartbeat CPU 0 instructions: 310000003 cycles: 77618346 heartbeat IPC: 3.99421 cumulative IPC: 3.9939 (Simulation time: 0 hr 19 min 15 sec) 
Heartbeat CPU 0 instructions: 320000003 cycles: 80121594 heartbeat IPC: 3.99481 cumulative IPC: 3.99393 (Simulation time: 0 hr 19 min 55 sec) 
Heartbeat CPU 0 instructions: 330000002 cycles: 82627138 heartbeat IPC: 3.99115 cumulative IPC: 3.99385 (Simulation time: 0 hr 20 min 28 sec) 
Heartbeat CPU 0 instructions: 340000002 cycles: 85133204 heartbeat IPC: 3.99032 cumulative IPC: 3.99374 (Simulation time: 0 hr 21 min 5 sec) 
Heartbeat CPU 0 instructions: 350000003 cycles: 87637797 heartbeat IPC: 3.99267 cumulative IPC: 3.99371 (Simulation time: 0 hr 21 min 36 sec) 
Heartbeat CPU 0 instructions: 360000001 cycles: 90142712 heartbeat IPC: 3.99215 cumulative IPC: 3.99367 (Simulation time: 0 hr 22 min 8 sec) 
Heartbeat CPU 0 instructions: 370000000 cycles: 92647359 heartbeat IPC: 3.99258 cumulative IPC: 3.99364 (Simulation time: 0 hr 22 min 41 sec) 
Heartbeat CPU 0 instructions: 380000003 cycles: 95152225 heartbeat IPC: 3.99223 cumulative IPC: 3.9936 (Simulation time: 0 hr 23 min 13 sec) 
Heartbeat CPU 0 instructions: 390000002 cycles: 97655682 heartbeat IPC: 3.99448 cumulative IPC: 3.99362 (Simulation time: 0 hr 23 min 48 sec) 
Heartbeat CPU 0 instructions: 400000003 cycles: 100164323 heartbeat IPC: 3.98622 cumulative IPC: 3.99344 (Simulation time: 0 hr 24 min 21 sec) 
Heartbeat CPU 0 instructions: 410000000 cycles: 102666268 heartbeat IPC: 3.99689 cumulative IPC: 3.99352 (Simulation time: 0 hr 24 min 54 sec) 
Heartbeat CPU 0 instructions: 420000000 cycles: 105167788 heartbeat IPC: 3.99757 cumulative IPC: 3.99362 (Simulation time: 0 hr 25 min 26 sec) 
Heartbeat CPU 0 instructions: 430000003 cycles: 107669790 heartbeat IPC: 3.9968 cumulative IPC: 3.99369 (Simulation time: 0 hr 26 min 7 sec) 
Heartbeat CPU 0 instructions: 440000000 cycles: 110171481 heartbeat IPC: 3.9973 cumulative IPC: 3.99377 (Simulation time: 0 hr 26 min 42 sec) 
Heartbeat CPU 0 instructions: 450000001 cycles: 112674111 heartbeat IPC: 3.9958 cumulative IPC: 3.99382 (Simulation time: 0 hr 27 min 15 sec) 
Heartbeat CPU 0 instructions: 460000000 cycles: 115178740 heartbeat IPC: 3.99261 cumulative IPC: 3.99379 (Simulation time: 0 hr 27 min 47 sec) 
Heartbeat CPU 0 instructions: 470000003 cycles: 117680348 heartbeat IPC: 3.99743 cumulative IPC: 3.99387 (Simulation time: 0 hr 28 min 23 sec) 
Heartbeat CPU 0 instructions: 480000001 cycles: 120185507 heartbeat IPC: 3.99176 cumulative IPC: 3.99383 (Simulation time: 0 hr 28 min 55 sec) 
Heartbeat CPU 0 instructions: 490000003 cycles: 122687452 heartbeat IPC: 3.99689 cumulative IPC: 3.99389 (Simulation time: 0 hr 29 min 46 sec) 
Heartbeat CPU 0 instructions: 500000001 cycles: 125191174 heartbeat IPC: 3.99405 cumulative IPC: 3.99389 (Simulation time: 0 hr 30 min 21 sec) 

Warmup complete CPU 0 instructions: 500000001 cycles: 125191174 (Simulation time: 0 hr 30 min 21 sec) 

Heartbeat CPU 0 instructions: 510000001 cycles: 136896853 heartbeat IPC: 0.854286 cumulative IPC: 0.854286 (Simulation time: 0 hr 31 min 4 sec) 
Heartbeat CPU 0 instructions: 520000002 cycles: 148707140 heartbeat IPC: 0.84672 cumulative IPC: 0.850486 (Simulation time: 0 hr 31 min 40 sec) 
Heartbeat CPU 0 instructions: 530000001 cycles: 160502907 heartbeat IPC: 0.847762 cumulative IPC: 0.849576 (Simulation time: 0 hr 32 min 30 sec) 
Heartbeat CPU 0 instructions: 540000004 cycles: 172537837 heartbeat IPC: 0.830915 cumulative IPC: 0.844833 (Simulation time: 0 hr 33 min 10 sec) 
Heartbeat CPU 0 instructions: 550000003 cycles: 183094944 heartbeat IPC: 0.947229 cumulative IPC: 0.863502 (Simulation time: 0 hr 33 min 50 sec) 
Heartbeat CPU 0 instructions: 560000002 cycles: 194450849 heartbeat IPC: 0.880599 cumulative IPC: 0.866305 (Simulation time: 0 hr 34 min 27 sec) 
Heartbeat CPU 0 instructions: 570000001 cycles: 206206173 heartbeat IPC: 0.850678 cumulative IPC: 0.864038 (Simulation time: 0 hr 35 min 6 sec) 
Heartbeat CPU 0 instructions: 580000000 cycles: 217343540 heartbeat IPC: 0.897878 cumulative IPC: 0.868127 (Simulation time: 0 hr 35 min 42 sec) 
Heartbeat CPU 0 instructions: 590000001 cycles: 228985770 heartbeat IPC: 0.858942 cumulative IPC: 0.867097 (Simulation time: 0 hr 36 min 19 sec) 
Heartbeat CPU 0 instructions: 600000001 cycles: 240572160 heartbeat IPC: 0.863082 cumulative IPC: 0.866694 (Simulation time: 0 hr 36 min 56 sec) 
Heartbeat CPU 0 instructions: 610000001 cycles: 251511362 heartbeat IPC: 0.914143 cumulative IPC: 0.870803 (Simulation time: 0 hr 37 min 32 sec) 
Heartbeat CPU 0 instructions: 620000002 cycles: 263509404 heartbeat IPC: 0.833469 cumulative IPC: 0.867565 (Simulation time: 0 hr 38 min 16 sec) 
Heartbeat CPU 0 instructions: 630000002 cycles: 275370906 heartbeat IPC: 0.843064 cumulative IPC: 0.865629 (Simulation time: 0 hr 38 min 53 sec) 
Heartbeat CPU 0 instructions: 640000000 cycles: 286633174 heartbeat IPC: 0.88792 cumulative IPC: 0.867185 (Simulation time: 0 hr 39 min 39 sec) 
Heartbeat CPU 0 instructions: 650000000 cycles: 297373210 heartbeat IPC: 0.931096 cumulative IPC: 0.871171 (Simulation time: 0 hr 40 min 15 sec) 
Heartbeat CPU 0 instructions: 660000001 cycles: 308740826 heartbeat IPC: 0.879692 cumulative IPC: 0.871699 (Simulation time: 0 hr 40 min 52 sec) 
Heartbeat CPU 0 instructions: 670000001 cycles: 320415815 heartbeat IPC: 0.856532 cumulative IPC: 0.870792 (Simulation time: 0 hr 41 min 52 sec) 
Heartbeat CPU 0 instructions: 680000000 cycles: 331584636 heartbeat IPC: 0.89535 cumulative IPC: 0.872121 (Simulation time: 0 hr 42 min 32 sec) 
Heartbeat CPU 0 instructions: 690000002 cycles: 342662662 heartbeat IPC: 0.902688 cumulative IPC: 0.873678 (Simulation time: 0 hr 43 min 9 sec) 
Heartbeat CPU 0 instructions: 700000001 cycles: 354347884 heartbeat IPC: 0.855782 cumulative IPC: 0.872765 (Simulation time: 0 hr 43 min 56 sec) 
Heartbeat CPU 0 instructions: 710000001 cycles: 366180254 heartbeat IPC: 0.845139 cumulative IPC: 0.871409 (Simulation time: 0 hr 44 min 56 sec) 
Heartbeat CPU 0 instructions: 720000001 cycles: 377657272 heartbeat IPC: 0.871306 cumulative IPC: 0.871404 (Simulation time: 0 hr 45 min 34 sec) 
Heartbeat CPU 0 instructions: 730000000 cycles: 389298070 heartbeat IPC: 0.859048 cumulative IPC: 0.87086 (Simulation time: 0 hr 46 min 14 sec) 
Heartbeat CPU 0 instructions: 740000001 cycles: 400628123 heartbeat IPC: 0.882608 cumulative IPC: 0.871343 (Simulation time: 0 hr 46 min 51 sec) 
Heartbeat CPU 0 instructions: 750000001 cycles: 411586716 heartbeat IPC: 0.912526 cumulative IPC: 0.872919 (Simulation time: 0 hr 47 min 28 sec) 
Heartbeat CPU 0 instructions: 760000004 cycles: 423076062 heartbeat IPC: 0.870372 cumulative IPC: 0.87282 (Simulation time: 0 hr 48 min 4 sec) 
Heartbeat CPU 0 instructions: 770000001 cycles: 434356564 heartbeat IPC: 0.886485 cumulative IPC: 0.873319 (Simulation time: 0 hr 48 min 40 sec) 
Heartbeat CPU 0 instructions: 780000001 cycles: 445362159 heartbeat IPC: 0.908629 cumulative IPC: 0.874533 (Simulation time: 0 hr 49 min 16 sec) 
Heartbeat CPU 0 instructions: 790000000 cycles: 456973541 heartbeat IPC: 0.861224 cumulative IPC: 0.874067 (Simulation time: 0 hr 49 min 53 sec) 
Heartbeat CPU 0 instructions: 800000001 cycles: 468358003 heartbeat IPC: 0.87839 cumulative IPC: 0.87421 (Simulation time: 0 hr 50 min 29 sec) 
Heartbeat CPU 0 instructions: 810000000 cycles: 479867455 heartbeat IPC: 0.868851 cumulative IPC: 0.874036 (Simulation time: 0 hr 51 min 6 sec) 
Heartbeat CPU 0 instructions: 820000001 cycles: 491835203 heartbeat IPC: 0.835579 cumulative IPC: 0.872781 (Simulation time: 0 hr 51 min 43 sec) 
Heartbeat CPU 0 instructions: 830000004 cycles: 503298042 heartbeat IPC: 0.872384 cumulative IPC: 0.872769 (Simulation time: 0 hr 52 min 19 sec) 
Heartbeat CPU 0 instructions: 840000001 cycles: 514109372 heartbeat IPC: 0.924955 cumulative IPC: 0.87422 (Simulation time: 0 hr 52 min 56 sec) 
Heartbeat CPU 0 instructions: 850000000 cycles: 525241559 heartbeat IPC: 0.898296 cumulative IPC: 0.87489 (Simulation time: 0 hr 53 min 32 sec) 
Heartbeat CPU 0 instructions: 860000001 cycles: 536226692 heartbeat IPC: 0.910321 cumulative IPC: 0.875837 (Simulation time: 0 hr 54 min 9 sec) 
Heartbeat CPU 0 instructions: 870000000 cycles: 547750354 heartbeat IPC: 0.86778 cumulative IPC: 0.875617 (Simulation time: 0 hr 54 min 51 sec) 
Heartbeat CPU 0 instructions: 880000000 cycles: 559364684 heartbeat IPC: 0.861005 cumulative IPC: 0.875226 (Simulation time: 0 hr 55 min 29 sec) 
Heartbeat CPU 0 instructions: 890000004 cycles: 571281743 heartbeat IPC: 0.839134 cumulative IPC: 0.874262 (Simulation time: 0 hr 56 min 8 sec) 
Heartbeat CPU 0 instructions: 900000001 cycles: 583091463 heartbeat IPC: 0.84676 cumulative IPC: 0.873553 (Simulation time: 0 hr 56 min 46 sec) 
Heartbeat CPU 0 instructions: 910000001 cycles: 594594846 heartbeat IPC: 0.869309 cumulative IPC: 0.873449 (Simulation time: 0 hr 57 min 30 sec) 
Heartbeat CPU 0 instructions: 920000000 cycles: 606228171 heartbeat IPC: 0.859599 cumulative IPC: 0.873114 (Simulation time: 0 hr 58 min 25 sec) 
Heartbeat CPU 0 instructions: 930000003 cycles: 618004196 heartbeat IPC: 0.849183 cumulative IPC: 0.872542 (Simulation time: 0 hr 59 min 18 sec) 
Heartbeat CPU 0 instructions: 940000001 cycles: 629667505 heartbeat IPC: 0.857389 cumulative IPC: 0.872192 (Simulation time: 0 hr 59 min 53 sec) 
Heartbeat CPU 0 instructions: 950000000 cycles: 641474527 heartbeat IPC: 0.846954 cumulative IPC: 0.871614 (Simulation time: 1 hr 0 min 28 sec) 
Heartbeat CPU 0 instructions: 960000001 cycles: 653088963 heartbeat IPC: 0.860998 cumulative IPC: 0.871381 (Simulation time: 1 hr 1 min 3 sec) 
Heartbeat CPU 0 instructions: 970000000 cycles: 664560179 heartbeat IPC: 0.871747 cumulative IPC: 0.871389 (Simulation time: 1 hr 1 min 39 sec) 
Heartbeat CPU 0 instructions: 980000003 cycles: 676119685 heartbeat IPC: 0.865089 cumulative IPC: 0.871256 (Simulation time: 1 hr 2 min 14 sec) 
Heartbeat CPU 0 instructions: 990000002 cycles: 687516298 heartbeat IPC: 0.877454 cumulative IPC: 0.871382 (Simulation time: 1 hr 2 min 49 sec) 
Heartbeat CPU 0 instructions: 1000000004 cycles: 699064495 heartbeat IPC: 0.865936 cumulative IPC: 0.871272 (Simulation time: 1 hr 3 min 46 sec) 
Heartbeat CPU 0 instructions: 1010000000 cycles: 710554526 heartbeat IPC: 0.870319 cumulative IPC: 0.871254 (Simulation time: 1 hr 4 min 21 sec) 
Heartbeat CPU 0 instructions: 1020000000 cycles: 722226778 heartbeat IPC: 0.856733 cumulative IPC: 0.87097 (Simulation time: 1 hr 4 min 58 sec) 
Heartbeat CPU 0 instructions: 1030000001 cycles: 733768714 heartbeat IPC: 0.866406 cumulative IPC: 0.870883 (Simulation time: 1 hr 5 min 35 sec) 
Heartbeat CPU 0 instructions: 1040000003 cycles: 745442306 heartbeat IPC: 0.856635 cumulative IPC: 0.870615 (Simulation time: 1 hr 6 min 10 sec) 
Heartbeat CPU 0 instructions: 1050000002 cycles: 756980615 heartbeat IPC: 0.866678 cumulative IPC: 0.870543 (Simulation time: 1 hr 6 min 46 sec) 
Heartbeat CPU 0 instructions: 1060000004 cycles: 768468294 heartbeat IPC: 0.870498 cumulative IPC: 0.870542 (Simulation time: 1 hr 7 min 21 sec) 
Heartbeat CPU 0 instructions: 1070000002 cycles: 779744772 heartbeat IPC: 0.886802 cumulative IPC: 0.870822 (Simulation time: 1 hr 7 min 56 sec) 
Heartbeat CPU 0 instructions: 1080000001 cycles: 791363938 heartbeat IPC: 0.860647 cumulative IPC: 0.870645 (Simulation time: 1 hr 8 min 32 sec) 
Heartbeat CPU 0 instructions: 1090000000 cycles: 802757393 heartbeat IPC: 0.877697 cumulative IPC: 0.870764 (Simulation time: 1 hr 9 min 7 sec) 
Heartbeat CPU 0 instructions: 1100000004 cycles: 814596954 heartbeat IPC: 0.844626 cumulative IPC: 0.870315 (Simulation time: 1 hr 9 min 44 sec) 
Heartbeat CPU 0 instructions: 1110000001 cycles: 826247026 heartbeat IPC: 0.858364 cumulative IPC: 0.870116 (Simulation time: 1 hr 10 min 19 sec) 
Heartbeat CPU 0 instructions: 1120000004 cycles: 837350252 heartbeat IPC: 0.900639 cumulative IPC: 0.870592 (Simulation time: 1 hr 10 min 54 sec) 
Heartbeat CPU 0 instructions: 1130000002 cycles: 848977538 heartbeat IPC: 0.860046 cumulative IPC: 0.870423 (Simulation time: 1 hr 11 min 29 sec) 
Heartbeat CPU 0 instructions: 1140000004 cycles: 860713604 heartbeat IPC: 0.852074 cumulative IPC: 0.87013 (Simulation time: 1 hr 12 min 5 sec) 
Heartbeat CPU 0 instructions: 1150000000 cycles: 872342836 heartbeat IPC: 0.859902 cumulative IPC: 0.869971 (Simulation time: 1 hr 12 min 40 sec) 
Heartbeat CPU 0 instructions: 1160000004 cycles: 883997441 heartbeat IPC: 0.85803 cumulative IPC: 0.869787 (Simulation time: 1 hr 13 min 15 sec) 
Heartbeat CPU 0 instructions: 1170000001 cycles: 895760252 heartbeat IPC: 0.850137 cumulative IPC: 0.869487 (Simulation time: 1 hr 13 min 50 sec) 
Heartbeat CPU 0 instructions: 1180000002 cycles: 907333950 heartbeat IPC: 0.864028 cumulative IPC: 0.869406 (Simulation time: 1 hr 14 min 26 sec) 
Heartbeat CPU 0 instructions: 1190000001 cycles: 918865132 heartbeat IPC: 0.867214 cumulative IPC: 0.869375 (Simulation time: 1 hr 15 min 1 sec) 
Heartbeat CPU 0 instructions: 1200000000 cycles: 930381374 heartbeat IPC: 0.868339 cumulative IPC: 0.86936 (Simulation time: 1 hr 15 min 37 sec) 
Heartbeat CPU 0 instructions: 1210000004 cycles: 942003494 heartbeat IPC: 0.860429 cumulative IPC: 0.869233 (Simulation time: 1 hr 16 min 13 sec) 
Heartbeat CPU 0 instructions: 1220000004 cycles: 953241208 heartbeat IPC: 0.889861 cumulative IPC: 0.869513 (Simulation time: 1 hr 16 min 48 sec) 
Heartbeat CPU 0 instructions: 1230000001 cycles: 964134157 heartbeat IPC: 0.918025 cumulative IPC: 0.870143 (Simulation time: 1 hr 17 min 23 sec) 
Heartbeat CPU 0 instructions: 1240000000 cycles: 974925065 heartbeat IPC: 0.926706 cumulative IPC: 0.870861 (Simulation time: 1 hr 17 min 58 sec) 
Heartbeat CPU 0 instructions: 1250000002 cycles: 985757292 heartbeat IPC: 0.923171 cumulative IPC: 0.871519 (Simulation time: 1 hr 18 min 34 sec) 
Heartbeat CPU 0 instructions: 1260000000 cycles: 996617910 heartbeat IPC: 0.920758 cumulative IPC: 0.872133 (Simulation time: 1 hr 19 min 9 sec) 
Heartbeat CPU 0 instructions: 1270000004 cycles: 1007540550 heartbeat IPC: 0.91553 cumulative IPC: 0.87267 (Simulation time: 1 hr 19 min 44 sec) 
Heartbeat CPU 0 instructions: 1280000000 cycles: 1018498296 heartbeat IPC: 0.912596 cumulative IPC: 0.87316 (Simulation time: 1 hr 20 min 20 sec) 
Heartbeat CPU 0 instructions: 1290000004 cycles: 1029384630 heartbeat IPC: 0.918583 cumulative IPC: 0.873707 (Simulation time: 1 hr 20 min 55 sec) 
Heartbeat CPU 0 instructions: 1300000001 cycles: 1040204315 heartbeat IPC: 0.924241 cumulative IPC: 0.874304 (Simulation time: 1 hr 21 min 30 sec) 
Heartbeat CPU 0 instructions: 1310000001 cycles: 1051151750 heartbeat IPC: 0.913456 cumulative IPC: 0.874767 (Simulation time: 1 hr 22 min 5 sec) 
Heartbeat CPU 0 instructions: 1320000004 cycles: 1062745966 heartbeat IPC: 0.862499 cumulative IPC: 0.874616 (Simulation time: 1 hr 22 min 40 sec) 
Heartbeat CPU 0 instructions: 1330000000 cycles: 1074322903 heartbeat IPC: 0.863786 cumulative IPC: 0.874483 (Simulation time: 1 hr 23 min 16 sec) 
Heartbeat CPU 0 instructions: 1340000000 cycles: 1086194855 heartbeat IPC: 0.842321 cumulative IPC: 0.874086 (Simulation time: 1 hr 23 min 52 sec) 
Heartbeat CPU 0 instructions: 1350000002 cycles: 1097727436 heartbeat IPC: 0.867109 cumulative IPC: 0.874003 (Simulation time: 1 hr 24 min 27 sec) 
Heartbeat CPU 0 instructions: 1360000001 cycles: 1109393586 heartbeat IPC: 0.857181 cumulative IPC: 0.873804 (Simulation time: 1 hr 25 min 2 sec) 
Heartbeat CPU 0 instructions: 1370000001 cycles: 1121082535 heartbeat IPC: 0.855509 cumulative IPC: 0.873589 (Simulation time: 1 hr 25 min 36 sec) 
Heartbeat CPU 0 instructions: 1380000000 cycles: 1132784541 heartbeat IPC: 0.854554 cumulative IPC: 0.873368 (Simulation time: 1 hr 26 min 15 sec) 
Heartbeat CPU 0 instructions: 1390000001 cycles: 1144238223 heartbeat IPC: 0.873082 cumulative IPC: 0.873365 (Simulation time: 1 hr 26 min 55 sec) 
Heartbeat CPU 0 instructions: 1400000002 cycles: 1155611494 heartbeat IPC: 0.879255 cumulative IPC: 0.87343 (Simulation time: 1 hr 27 min 35 sec) 
Heartbeat CPU 0 instructions: 1410000000 cycles: 1167345287 heartbeat IPC: 0.852239 cumulative IPC: 0.873191 (Simulation time: 1 hr 28 min 10 sec) 
Heartbeat CPU 0 instructions: 1420000001 cycles: 1179146754 heartbeat IPC: 0.847352 cumulative IPC: 0.872902 (Simulation time: 1 hr 28 min 45 sec) 
Heartbeat CPU 0 instructions: 1430000004 cycles: 1190751650 heartbeat IPC: 0.861706 cumulative IPC: 0.87278 (Simulation time: 1 hr 29 min 20 sec) 
Heartbeat CPU 0 instructions: 1440000001 cycles: 1202063123 heartbeat IPC: 0.884058 cumulative IPC: 0.872899 (Simulation time: 1 hr 29 min 55 sec) 
Heartbeat CPU 0 instructions: 1450000001 cycles: 1213493858 heartbeat IPC: 0.874834 cumulative IPC: 0.872919 (Simulation time: 1 hr 30 min 30 sec) 
Heartbeat CPU 0 instructions: 1460000001 cycles: 1225259920 heartbeat IPC: 0.849902 cumulative IPC: 0.872673 (Simulation time: 1 hr 31 min 5 sec) 
Heartbeat CPU 0 instructions: 1470000003 cycles: 1237059307 heartbeat IPC: 0.847502 cumulative IPC: 0.872406 (Simulation time: 1 hr 31 min 45 sec) 
Heartbeat CPU 0 instructions: 1480000003 cycles: 1248649501 heartbeat IPC: 0.862798 cumulative IPC: 0.872307 (Simulation time: 1 hr 32 min 25 sec) 
Heartbeat CPU 0 instructions: 1490000004 cycles: 1260354551 heartbeat IPC: 0.854332 cumulative IPC: 0.872121 (Simulation time: 1 hr 33 min 1 sec) 
Heartbeat CPU 0 instructions: 1500000000 cycles: 1271360409 heartbeat IPC: 0.908607 cumulative IPC: 0.872472 (Simulation time: 1 hr 33 min 36 sec) 
Heartbeat CPU 0 instructions: 1510000004 cycles: 1283106728 heartbeat IPC: 0.851331 cumulative IPC: 0.872257 (Simulation time: 1 hr 34 min 12 sec) 
Heartbeat CPU 0 instructions: 1520000000 cycles: 1294346405 heartbeat IPC: 0.889705 cumulative IPC: 0.872425 (Simulation time: 1 hr 34 min 48 sec) 
Heartbeat CPU 0 instructions: 1530000000 cycles: 1305814119 heartbeat IPC: 0.872013 cumulative IPC: 0.872421 (Simulation time: 1 hr 35 min 23 sec) 
Heartbeat CPU 0 instructions: 1540000001 cycles: 1317752890 heartbeat IPC: 0.837607 cumulative IPC: 0.872072 (Simulation time: 1 hr 36 min 0 sec) 
Heartbeat CPU 0 instructions: 1550000001 cycles: 1329329478 heartbeat IPC: 0.863812 cumulative IPC: 0.871993 (Simulation time: 1 hr 36 min 36 sec) 
Heartbeat CPU 0 instructions: 1560000003 cycles: 1340907411 heartbeat IPC: 0.863712 cumulative IPC: 0.871914 (Simulation time: 1 hr 37 min 11 sec) 
Heartbeat CPU 0 instructions: 1570000000 cycles: 1352529299 heartbeat IPC: 0.860445 cumulative IPC: 0.871805 (Simulation time: 1 hr 37 min 46 sec) 
Heartbeat CPU 0 instructions: 1580000002 cycles: 1364123009 heartbeat IPC: 0.862537 cumulative IPC: 0.871719 (Simulation time: 1 hr 38 min 21 sec) 
Heartbeat CPU 0 instructions: 1590000003 cycles: 1375460068 heartbeat IPC: 0.882063 cumulative IPC: 0.871812 (Simulation time: 1 hr 38 min 56 sec) 
Heartbeat CPU 0 instructions: 1600000000 cycles: 1386922851 heartbeat IPC: 0.872388 cumulative IPC: 0.871818 (Simulation time: 1 hr 39 min 49 sec) 
Heartbeat CPU 0 instructions: 1610000001 cycles: 1398440459 heartbeat IPC: 0.868236 cumulative IPC: 0.871785 (Simulation time: 1 hr 40 min 52 sec) 
Heartbeat CPU 0 instructions: 1620000002 cycles: 1410147033 heartbeat IPC: 0.854221 cumulative IPC: 0.871625 (Simulation time: 1 hr 41 min 55 sec) 
Heartbeat CPU 0 instructions: 1630000001 cycles: 1421672088 heartbeat IPC: 0.867675 cumulative IPC: 0.87159 (Simulation time: 1 hr 42 min 39 sec) 
Heartbeat CPU 0 instructions: 1640000000 cycles: 1433145389 heartbeat IPC: 0.871589 cumulative IPC: 0.87159 (Simulation time: 1 hr 43 min 15 sec) 
Heartbeat CPU 0 instructions: 1650000001 cycles: 1444447437 heartbeat IPC: 0.884795 cumulative IPC: 0.871703 (Simulation time: 1 hr 43 min 51 sec) 
Heartbeat CPU 0 instructions: 1660000002 cycles: 1455427083 heartbeat IPC: 0.910776 cumulative IPC: 0.872026 (Simulation time: 1 hr 44 min 27 sec) 
Heartbeat CPU 0 instructions: 1670000003 cycles: 1466771904 heartbeat IPC: 0.88146 cumulative IPC: 0.872106 (Simulation time: 1 hr 45 min 6 sec) 
Heartbeat CPU 0 instructions: 1680000001 cycles: 1478611974 heartbeat IPC: 0.844589 cumulative IPC: 0.871865 (Simulation time: 1 hr 45 min 42 sec) 
Heartbeat CPU 0 instructions: 1690000004 cycles: 1490347906 heartbeat IPC: 0.852084 cumulative IPC: 0.871695 (Simulation time: 1 hr 46 min 17 sec) 
Heartbeat CPU 0 instructions: 1700000000 cycles: 1502174650 heartbeat IPC: 0.845541 cumulative IPC: 0.87147 (Simulation time: 1 hr 46 min 53 sec) 
Heartbeat CPU 0 instructions: 1710000000 cycles: 1514156315 heartbeat IPC: 0.834609 cumulative IPC: 0.871152 (Simulation time: 1 hr 47 min 28 sec) 
Heartbeat CPU 0 instructions: 1720000000 cycles: 1526533099 heartbeat IPC: 0.807964 cumulative IPC: 0.870594 (Simulation time: 1 hr 48 min 5 sec) 
Heartbeat CPU 0 instructions: 1730000001 cycles: 1538551542 heartbeat IPC: 0.832055 cumulative IPC: 0.870266 (Simulation time: 1 hr 48 min 41 sec) 
Heartbeat CPU 0 instructions: 1740000002 cycles: 1550419317 heartbeat IPC: 0.842618 cumulative IPC: 0.870036 (Simulation time: 1 hr 49 min 16 sec) 
Heartbeat CPU 0 instructions: 1750000002 cycles: 1562032176 heartbeat IPC: 0.861114 cumulative IPC: 0.869964 (Simulation time: 1 hr 49 min 52 sec) 
Heartbeat CPU 0 instructions: 1760000000 cycles: 1573716032 heartbeat IPC: 0.855882 cumulative IPC: 0.86985 (Simulation time: 1 hr 50 min 28 sec) 
Heartbeat CPU 0 instructions: 1770000003 cycles: 1585058304 heartbeat IPC: 0.881658 cumulative IPC: 0.869942 (Simulation time: 1 hr 51 min 3 sec) 
Heartbeat CPU 0 instructions: 1780000000 cycles: 1596610745 heartbeat IPC: 0.865618 cumulative IPC: 0.869908 (Simulation time: 1 hr 51 min 39 sec) 
Heartbeat CPU 0 instructions: 1790000003 cycles: 1608238111 heartbeat IPC: 0.86004 cumulative IPC: 0.869831 (Simulation time: 1 hr 52 min 15 sec) 
Heartbeat CPU 0 instructions: 1800000003 cycles: 1619962795 heartbeat IPC: 0.852901 cumulative IPC: 0.869698 (Simulation time: 1 hr 52 min 51 sec) 
Heartbeat CPU 0 instructions: 1810000002 cycles: 1631743318 heartbeat IPC: 0.848859 cumulative IPC: 0.869535 (Simulation time: 1 hr 53 min 27 sec) 
Heartbeat CPU 0 instructions: 1820000000 cycles: 1643281069 heartbeat IPC: 0.86672 cumulative IPC: 0.869514 (Simulation time: 1 hr 54 min 3 sec) 
Heartbeat CPU 0 instructions: 1830000003 cycles: 1655044760 heartbeat IPC: 0.850074 cumulative IPC: 0.869364 (Simulation time: 1 hr 54 min 38 sec) 
Heartbeat CPU 0 instructions: 1840000002 cycles: 1666363293 heartbeat IPC: 0.883507 cumulative IPC: 0.869468 (Simulation time: 1 hr 55 min 15 sec) 
Heartbeat CPU 0 instructions: 1850000000 cycles: 1677812886 heartbeat IPC: 0.873393 cumulative IPC: 0.869497 (Simulation time: 1 hr 55 min 49 sec) 
Heartbeat CPU 0 instructions: 1860000002 cycles: 1689673148 heartbeat IPC: 0.843152 cumulative IPC: 0.869297 (Simulation time: 1 hr 56 min 24 sec) 
Heartbeat CPU 0 instructions: 1870000000 cycles: 1701364195 heartbeat IPC: 0.855355 cumulative IPC: 0.869194 (Simulation time: 1 hr 57 min 1 sec) 
Heartbeat CPU 0 instructions: 1880000002 cycles: 1713155571 heartbeat IPC: 0.848078 cumulative IPC: 0.869037 (Simulation time: 1 hr 57 min 37 sec) 
Heartbeat CPU 0 instructions: 1890000000 cycles: 1724951203 heartbeat IPC: 0.847771 cumulative IPC: 0.86888 (Simulation time: 1 hr 58 min 14 sec) 
Heartbeat CPU 0 instructions: 1900000000 cycles: 1736754147 heartbeat IPC: 0.847246 cumulative IPC: 0.868722 (Simulation time: 1 hr 58 min 50 sec) 
Heartbeat CPU 0 instructions: 1910000002 cycles: 1748631745 heartbeat IPC: 0.841921 cumulative IPC: 0.868526 (Simulation time: 1 hr 59 min 27 sec) 
Heartbeat CPU 0 instructions: 1920000000 cycles: 1760155462 heartbeat IPC: 0.867775 cumulative IPC: 0.86852 (Simulation time: 2 hr 0 min 2 sec) 
Heartbeat CPU 0 instructions: 1930000000 cycles: 1771804525 heartbeat IPC: 0.858438 cumulative IPC: 0.868449 (Simulation time: 2 hr 0 min 38 sec) 
Heartbeat CPU 0 instructions: 1940000000 cycles: 1783500867 heartbeat IPC: 0.854968 cumulative IPC: 0.868354 (Simulation time: 2 hr 1 min 14 sec) 
Heartbeat CPU 0 instructions: 1950000001 cycles: 1794873869 heartbeat IPC: 0.879275 cumulative IPC: 0.868428 (Simulation time: 2 hr 1 min 50 sec) 
Heartbeat CPU 0 instructions: 1960000000 cycles: 1806551387 heartbeat IPC: 0.856346 cumulative IPC: 0.868345 (Simulation time: 2 hr 2 min 26 sec) 
Heartbeat CPU 0 instructions: 1970000000 cycles: 1818280374 heartbeat IPC: 0.852589 cumulative IPC: 0.868235 (Simulation time: 2 hr 3 min 1 sec) 
Heartbeat CPU 0 instructions: 1980000004 cycles: 1830012878 heartbeat IPC: 0.852333 cumulative IPC: 0.868126 (Simulation time: 2 hr 3 min 37 sec) 
Heartbeat CPU 0 instructions: 1990000002 cycles: 1841990270 heartbeat IPC: 0.834906 cumulative IPC: 0.867894 (Simulation time: 2 hr 4 min 12 sec) 
*** Reached end of trace: traces/458.sjeng-31B.champsimtrace.xz
Heartbeat CPU 0 instructions: 2000000001 cycles: 1853894643 heartbeat IPC: 0.840027 cumulative IPC: 0.867702 (Simulation time: 2 hr 4 min 47 sec) 
Finished CPU 0 instructions: 1500000000 cycles: 1728703469 cumulative IPC: 0.867702 (Simulation time: 2 hr 4 min 47 sec) 

ChampSim completed all CPUs

Region of Interest Statistics

CPU 0 cumulative IPC: 0.867702 instructions: 1500000000 cycles: 1728703469
cpu0_DTLB TOTAL     ACCESS:  320850188  HIT:  318716163  MISS:    2134025
cpu0_DTLB LOAD      ACCESS:  243533439  HIT:  241751177  MISS:    1782262
cpu0_DTLB RFO       ACCESS:   77316749  HIT:   76964986  MISS:     351763
cpu0_DTLB PREFETCH  ACCESS:          0  HIT:          0  MISS:          0
cpu0_DTLB WRITEBACK ACCESS:          0  HIT:          0  MISS:          0
cpu0_DTLB TRANSLATION ACCESS:          0  HIT:          0  MISS:          0
cpu0_DTLB PREFETCH  REQUESTED:          0  ISSUED:          0  USEFUL:          0  USELESS:          0
cpu0_DTLB AVERAGE MISS LATENCY: 11.3617 cycles
cpu0_ITLB TOTAL     ACCESS:  144690227  HIT:  144690214  MISS:         13
cpu0_ITLB LOAD      ACCESS:  144690227  HIT:  144690214  MISS:         13
cpu0_ITLB RFO       ACCESS:          0  HIT:          0  MISS:          0
cpu0_ITLB PREFETCH  ACCESS:          0  HIT:          0  MISS:          0
cpu0_ITLB WRITEBACK ACCESS:          0  HIT:          0  MISS:          0
cpu0_ITLB TRANSLATION ACCESS:          0  HIT:          0  MISS:          0
cpu0_ITLB PREFETCH  REQUESTED:          0  ISSUED:          0  USEFUL:          0  USELESS:          0
cpu0_ITLB AVERAGE MISS LATENCY: 217.846 cycles
cpu0_L1I TOTAL     ACCESS:  104328619  HIT:  104283142  MISS:      45477
cpu0_L1I LOAD      ACCESS:  104328619  HIT:  104283142  MISS:      45477
cpu0_L1I RFO       ACCESS:          0  HIT:          0  MISS:          0
cpu0_L1I PREFETCH  ACCESS:          0  HIT:          0  MISS:          0
cpu0_L1I WRITEBACK ACCESS:          0  HIT:          0  MISS:          0
cpu0_L1I TRANSLATION ACCESS:          0  HIT:          0  MISS:          0
cpu0_L1I PREFETCH  REQUESTED:          0  ISSUED:          0  USEFUL:          0  USELESS:          0
cpu0_L1I AVERAGE MISS LATENCY: 13.4527 cycles
cpu0_STLB TOTAL     ACCESS:    2134038  HIT:    1708613  MISS:     425425
cpu0_STLB LOAD      ACCESS:    1782275  HIT:    1361372  MISS:     420903
cpu0_STLB RFO       ACCESS:     351763  HIT:     347241  MISS:       4522
cpu0_STLB PREFETCH  ACCESS:          0  HIT:          0  MISS:          0
cpu0_STLB WRITEBACK ACCESS:          0  HIT:          0  MISS:          0
cpu0_STLB TRANSLATION ACCESS:          0  HIT:          0  MISS:          0
cpu0_STLB PREFETCH  REQUESTED:          0  ISSUED:          0  USEFUL:          0  USELESS:          0
cpu0_STLB AVERAGE MISS LATENCY: 11.8254 cycles
cpu0_L1D TOTAL     ACCESS:  382333776  HIT:  381340509  MISS:     993267
cpu0_L1D LOAD      ACCESS:  251518415  HIT:  250791570  MISS:     726845
cpu0_L1D RFO       ACCESS:  130389983  HIT:  130136021  MISS:     253962
cpu0_L1D PREFETCH  ACCESS:          0  HIT:          0  MISS:          0
cpu0_L1D WRITEBACK ACCESS:          0  HIT:          0  MISS:          0
cpu0_L1D TRANSLATION ACCESS:     425378  HIT:     412918  MISS:      12460
cpu0_L1D PREFETCH  REQUESTED:          0  ISSUED:          0  USEFUL:          0  USELESS:          0
cpu0_L1D AVERAGE MISS LATENCY: 100.14 cycles
cpu0_L2C TOTAL     ACCESS:    1692107  HIT:    1181235  MISS:     510872
cpu0_L2C LOAD      ACCESS:     772314  HIT:     299176  MISS:     473138
cpu0_L2C RFO       ACCESS:     253913  HIT:     217669  MISS:      36244
cpu0_L2C PREFETCH  ACCESS:          0  HIT:          0  MISS:          0
cpu0_L2C WRITEBACK ACCESS:     653420  HIT:     651964  MISS:       1456
cpu0_L2C TRANSLATION ACCESS:      12460  HIT:      12426  MISS:         34
cpu0_L2C PREFETCH  REQUESTED:          0  ISSUED:          0  USEFUL:          0  USELESS:          0
cpu0_L2C AVERAGE MISS LATENCY: 173.518 cycles
LLC TOTAL     ACCESS:     917130  HIT:     437660  MISS:     479470
LLC LOAD      ACCESS:     473138  HIT:      26036  MISS:     447102
LLC RFO       ACCESS:      36244  HIT:       6394  MISS:      29850
LLC PREFETCH  ACCESS:          0  HIT:          0  MISS:          0
LLC WRITEBACK ACCESS:     407714  HIT:     405221  MISS:       2493
LLC TRANSLATION ACCESS:         34  HIT:          9  MISS:         25
LLC PREFETCH  REQUESTED:          0  ISSUED:          0  USEFUL:          0  USELESS:          0
LLC AVERAGE MISS LATENCY: 162.571 cycles
~~~~~~~~~~Reuse Distance Profiler output~~~~~~~~~~
0	74659840	22173856
1	41771248	21323504
2	28532384	16471200
3	22917616	15122736
4	18753104	13054800
5	14297472	9910720
6	12082096	8168624
7	12003120	8129968
8	10087456	7019488
9	9723584	7070688
10	8775920	6282544
11	8166720	6014592
12	7185200	5086144
13	6559888	4583472
14	5747744	3994368
15	5302368	3889184
16	4723136	3412336
17	4568144	3378800
18	4334576	3287184
19	4015808	3055664
20	4156784	3134496
21	3907056	3089104
22	3854064	3084352
23	4015536	3335200
24	4057120	3378288
25	4194384	3492656
26	4282864	3484880
27	3709408	3005008
28	3615584	2919520
29	3411696	2767600
30	3224544	2557392
31	3009616	2405632
32	2855072	2189968
33	2798064	2051040
34	2690352	1957984
35	2463184	1816832
36	2331648	1717168
37	2113088	1580048
38	2200464	1606224
39	2108368	1546048
40	1891920	1474656
41	1773824	1381808
42	1707584	1310656
43	1722160	1309376
44	1639984	1207840
45	1553392	1141984
46	1438224	1036224
47	1386864	988224
48	1347424	954304
49	1285264	944864
50	1303200	975104
51	1284976	972800
52	1218928	912608
53	1228960	932000
54	1190960	923344
55	1200128	923744
56	1190816	900816
57	1211728	910128
58	1165584	878032
59	1141632	844736
60	1181536	830624
61	1120416	812304
62	1104480	792496
63	1134000	763920
64	2055888	1411936
66	2014416	1314128
68	1957536	1226864
70	1853152	1151440
72	1723104	1075392
74	1626672	1030144
76	1540800	1011728
78	1530240	1045808
80	1460848	1002064
82	1397648	963872
84	1320064	923472
86	1276160	906752
88	1243280	881984
90	1234208	901744
92	1173872	863568
94	1154752	864256
96	1114608	840080
98	1060848	819552
100	989168	773680
102	894880	709856
104	812368	658064
106	778880	641232
108	765456	633232
110	764544	650336
112	752000	646944
114	743408	648528
116	684272	596512
118	620080	539264
120	591296	504848
122	572368	485568
124	566912	484096
126	557520	478512
128	1096848	949296
132	1050096	915312
136	1049088	913904
140	1117248	963200
144	1162016	979968
148	1201184	993536
152	1159152	965376
156	1035072	860560
160	884608	732768
164	766352	638368
168	665040	563440
172	596272	514080
176	540880	467376
180	499232	437120
184	456400	407136
188	429760	387520
192	417664	378240
196	424096	386608
200	418832	382656
204	425536	387616
208	421360	384720
212	410512	373568
216	388976	352912
220	380928	347072
224	351488	318640
228	330208	300400
232	304320	275488
236	295040	266048
240	287984	258784
244	267696	239760
248	258560	233328
252	247264	222624
256	450624	402592
264	425664	379280
272	414080	367392
280	398048	356240
288	388032	346272
296	373376	331600
304	358176	314368
312	359392	313952
320	344128	300608
328	312608	271536
336	277184	241200
344	270672	236256
352	267264	232384
360	260208	226368
368	247936	214960
376	233760	199616
384	225232	191472
392	224400	189456
400	219536	185072
408	215632	178832
416	200560	163920
424	200640	163632
432	198784	162544
440	191584	156912
448	196784	164208
456	194288	164720
464	189488	160752
472	179936	152848
480	188432	162384
488	180368	156320
496	171680	148368
504	164544	143216
512	326032	285440
528	317584	279664
544	301152	261104
560	287104	246000
576	281008	240176
592	276288	233504
608	289040	245008
624	297456	249728
640	300128	252560
656	318848	267456
672	325488	276480
688	334656	285456
704	353760	300704
720	361952	311328
736	371248	322576
752	383248	333584
768	398432	350400
784	411312	360816
800	421440	369392
816	416128	365040
832	420576	366448
848	415840	362304
864	400944	347328
880	380592	328912
896	349056	301136
912	324384	279136
928	307984	267520
944	292240	254432
960	290800	256416
976	286256	253712
992	282608	251440
1008	286352	254080
1024	596400	521824
1056	652048	575776
1088	723408	647872
1120	583920	529632
1152	463504	421920
1184	405392	367168
1216	399008	360336
1248	402576	362032
1280	403456	360880
1312	412720	367104
1344	420256	370368
1376	417856	365136
1408	412976	363296
1440	413232	364512
1472	414176	367088
1504	411648	365968
1536	421904	374752
1568	423648	375664
1600	398768	349008
1632	382816	335552
1664	386144	337360
1696	375312	325856
1728	349904	299632
1760	330960	283360
1792	315904	272304
1824	288960	249200
1856	258240	220832
1888	236256	202496
1920	216144	183952
1952	204528	173648
1984	181216	151504
2016	165040	138256
2048	304112	255920
2112	271056	226096
2176	243584	201920
2240	223456	184352
2304	202848	165840
2368	195600	160768
2432	188160	153664
2496	183248	151200
2560	178752	145200
2624	174576	141184
2688	170704	137840
2752	164640	132368
2816	156944	127984
2880	151824	124496
2944	147616	120608
3008	138880	113872
3072	137328	111088
3136	133808	108448
3200	130352	105856
3264	133472	109232
3328	132736	109184
3392	129152	104256
3456	123920	99968
3520	118608	95664
3584	113264	89616
3648	109776	86928
3712	102224	81616
3776	102128	79888
3840	99072	77728
3904	94912	74848
3968	89760	70224
4032	90672	70384
4096	172000	134400
4224	168800	131808
4352	168064	130864
4480	157856	121824
4608	154688	119872
4736	152304	116208
4864	152368	117088
4992	146704	112192
5120	144864	110816
5248	137008	106832
5376	134720	103264
5504	126352	97984
5632	121024	93344
5760	115248	88560
5888	112384	87168
6016	110272	86224
6144	110656	85200
6272	107760	83936
6400	104720	81712
6528	101072	77552
6656	100880	79728
6784	98400	77072
6912	94304	73296
7040	92192	72112
7168	89440	69552
7296	88096	69696
7424	80768	63056
7552	79504	60800
7680	78080	61072
7808	73648	57600
7936	72016	56160
8064	70736	54496
8192	135680	105904
8448	124304	95424
8704	114464	87040
8960	109440	83472
9216	100672	75888
9472	95136	71632
9728	91920	70224
9984	83952	61888
10240	83712	63040
10496	75536	55424
10752	72704	53024
11008	71888	52320
11264	70016	49920
11520	65200	47008
11776	66704	47776
12032	61200	43664
12288	58064	40912
12544	59792	43104
12800	56032	39712
13056	54416	38416
13312	53552	37936
13568	51056	35632
13824	51168	35456
14080	47728	33136
14336	48720	33760
14592	46736	32528
14848	42784	29472
15104	43920	30048
15360	43840	30032
15616	39744	27600
15872	40848	28224
16128	37552	25632
16384	72976	48832
16896	71504	48064
17408	68640	46624
17920	62384	42000
18432	57968	38384
18944	56032	36800
19456	53200	35040
19968	47936	31744
20480	48656	31792
20992	46720	30432
21504	44848	28480
22016	41200	26128
22528	42112	27024
23040	39072	25056
23552	37280	23696
24064	37584	23728
24576	35760	22720
25088	35088	21472
25600	34960	22784
26112	30704	19536
26624	29856	18752
27136	30624	19072
27648	28688	18288
28160	28832	18368
28672	26128	16368
29184	25024	15584
29696	25440	15664
30208	23984	14368
30720	24032	14544
31232	23424	14272
31744	22672	13600
32256	22368	13424
32768	41488	24736
33792	41312	24848
34816	39440	23744
35840	37216	22784
36864	33376	20080
37888	32272	19104
38912	31664	19104
39936	28704	17056
40960	27856	16720
41984	28336	16528
43008	25728	14976
44032	25552	14416
45056	24992	14608
46080	24528	14304
47104	21792	12256
48128	19728	11152
49152	19696	11696
50176	17984	10336
51200	17552	10128
52224	17328	9760
53248	16304	9504
54272	17040	9712
55296	15792	9072
56320	15440	8672
57344	14432	8208
58368	14336	7952
59392	13616	7728
60416	12752	6752
61440	13488	7392
62464	12640	6928
63488	11488	6256
64512	12016	6736
65536	22816	12544
67584	21456	11552
69632	19808	11456
71680	18224	9936
73728	17584	9680
75776	16496	8816
77824	16688	9184
79872	15344	7856
81920	14416	8352
83968	12880	7120
86016	13056	7600
88064	12848	7232
90112	12448	6864
92160	11680	6608
94208	11584	6464
96256	10320	5648
98304	11104	6512
100352	10576	5760
102400	9904	5392
104448	9520	5648
106496	8848	4480
108544	8160	4800
110592	8416	4720
112640	8592	4448
114688	7600	3984
116736	7728	4096
118784	7344	4352
120832	6800	3808
122880	7088	3904
124928	7088	3648
126976	6224	3696
129024	6064	3264
131072	11632	6144
135168	11504	6048
139264	11568	6064
143360	9488	4720
147456	10368	5536
151552	10288	5136
155648	10064	5408
159744	8624	4928
163840	8208	4736
167936	7888	4192
172032	7600	4304
176128	7536	4224
180224	7216	4352
184320	7504	4208
188416	6640	3808
192512	6672	3568
196608	6352	3488
200704	5888	3136
204800	6336	3232
208896	4880	2896
212992	5120	2864
217088	5872	3424
221184	4944	2752
225280	5440	3120
229376	4496	2576
233472	4560	2752
237568	4032	2576
241664	3696	1968
245760	3968	2416
249856	3760	2064
253952	3584	2176
258048	3584	2000
262144	7744	4864
270336	6912	3984
278528	6416	3712
286720	7408	4144
294912	5760	3344
303104	6144	3584
311296	6016	3184
319488	5504	3168
327680	4960	2720
335872	5152	3024
344064	5344	3024
352256	4976	2992
360448	4400	2544
368640	4480	2672
376832	4080	2480
385024	3744	2272
393216	3776	2288
401408	3312	1968
409600	2928	1760
417792	3024	1824
425984	3616	2080
434176	2912	1776
442368	3056	1824
450560	2784	1568
458752	2560	1424
466944	3088	1680
475136	2448	1600
483328	2784	1472
491520	2944	1536
499712	2816	1744
507904	2528	1584
516096	2448	1264
524288	4560	2592
540672	4240	2480
557056	4160	2352
573440	3856	2336
589824	3792	2368
606208	3792	2096
622592	3216	2032
638976	3376	2064
655360	2912	1792
671744	3376	1968
688128	2560	1584
704512	2736	1568
720896	2800	1712
737280	2816	1664
753664	2128	1344
770048	2864	1680
786432	2128	1312
802816	1968	1376
819200	2192	1424
835584	2544	1424
851968	2384	1424
868352	1504	896
884736	2064	1200
901120	1744	992
917504	1504	944
933888	2032	1184
950272	1568	1040
966656	1776	1056
983040	1632	992
999424	1472	1008
1015808	1808	1184
1032192	1136	688
1048576	2608	1520
1081344	2720	1776
1114112	2496	1808
1146880	2368	1440
1179648	1824	1104
1212416	1872	1296
1245184	1904	1184
1277952	1776	1184
1310720	1808	1408
1343488	1936	1344
1376256	1760	1056
1409024	1424	912
1441792	1584	1024
1474560	1280	896
1507328	1424	928
1540096	1552	1120
1572864	1424	976
1605632	1200	752
1638400	1056	752
1671168	1216	736
1703936	1168	720
1736704	1312	800
1769472	1152	720
1802240	1152	800
1835008	1280	832
1867776	1120	800
1900544	1168	768
1933312	896	560
1966080	736	400
1998848	800	624
2031616	784	576
2064384	880	656
2097152	2144	1376
2162688	1680	1264
2228224	1536	1008
2293760	1632	1104
2359296	1456	880
2424832	1264	752
2490368	1104	688
2555904	1232	848
2621440	1008	800
2686976	1360	848
2752512	1008	736
2818048	832	624
2883584	1040	736
2949120	1008	704
3014656	864	496
3080192	944	656
3145728	768	512
3211264	688	384
3276800	816	528
3342336	736	496
3407872	832	608
3473408	752	464
3538944	672	464
3604480	704	448
3670016	512	400
3735552	720	624
3801088	448	352
3866624	704	576
3932160	592	464
3997696	512	416
4063232	592	464
4128768	496	400
4194304	1088	736
4325376	976	640
4456448	944	720
4587520	928	768
4718592	1024	768
4849664	912	640
4980736	768	464
5111808	592	464
5242880	560	384
5373952	896	608
5505024	848	576
5636096	656	480
5767168	768	480
5898240	592	480
6029312	480	288
6160384	560	416
6291456	800	672
6422528	640	448
6553600	512	400
6684672	512	416
6815744	512	368
6946816	704	560
7077888	352	272
7208960	560	368
7340032	416	336
7471104	528	352
7602176	288	208
7733248	432	352
7864320	528	480
7995392	512	368
8126464	384	224
8257536	544	432
8388608	720	592
8650752	784	640
8912896	720	544
9175040	736	608
9437184	544	336
9699328	784	560
9961472	720	624
10223616	768	592
10485760	656	528
10747904	752	560
11010048	624	464
11272192	528	400
11534336	608	464
11796480	464	432
12058624	528	432
12320768	432	352
12582912	464	352
12845056	448	400
13107200	608	480
13369344	464	416
13631488	512	448
13893632	480	384
14155776	560	480
14417920	464	432
14680064	320	304
14942208	416	368
15204352	432	320
15466496	416	400
15728640	480	432
15990784	240	160
16252928	480	336
16515072	288	272
16777216	864	848
17301504	768	656
17825792	720	640
18350080	912	848
18874368	720	672
19398656	752	672
19922944	560	496
20447232	656	512
20971520	624	592
21495808	560	432
22020096	464	368
22544384	544	528
23068672	608	496
23592960	480	432
24117248	592	560
24641536	480	432
25165824	384	368
25690112	432	368
26214400	480	448
26738688	432	352
27262976	464	416
27787264	560	512
28311552	608	544
28835840	384	384
29360128	432	416
29884416	464	448
30408704	352	320
30932992	608	512
31457280	688	624
31981568	528	448
32505856	560	512
33030144	400	400
33554432	960	848
34603008	816	720
35651584	1136	1040
36700160	880	784
37748736	800	736
38797312	784	656
39845888	1040	944
40894464	1008	880
41943040	720	656
42991616	640	640
44040192	1104	992
45088768	784	704
46137344	720	592
47185920	976	912
48234496	544	496
49283072	752	688
50331648	880	816
51380224	816	752
52428800	832	768
53477376	848	768
54525952	912	848
55574528	848	768
56623104	1056	944
57671680	768	656
58720256	720	640
59768832	640	544
60817408	800	720
61865984	896	800
62914560	896	848
63963136	544	448
65011712	864	800
66060288	624	560
67108864	1248	1200
69206016	1360	1168
71303168	1536	1344
73400320	1392	1328
75497472	1056	960
77594624	1056	960
79691776	1216	1040
81788928	1120	960
83886080	1072	960
85983232	1152	1088
88080384	1088	1008
90177536	1280	1152
92274688	1056	944
94371840	1040	896
96468992	1152	1072
98566144	1040	976
100663296	1200	1152
102760448	1120	976
104857600	976	896
106954752	1088	1008
109051904	1152	1072
111149056	816	800
113246208	960	896
115343360	1040	976
117440512	736	704
119537664	848	800
121634816	752	608
123731968	1056	992
125829120	960	880
127926272	928	848
130023424	1072	1008
132120576	912	832
134217728	1680	1488
138412032	1680	1472
142606336	1536	1376
146800640	1680	1600
150994944	1552	1472
155189248	1472	1424
159383552	1536	1456
163577856	1648	1520
167772160	1136	1008
171966464	1568	1408
176160768	1632	1552
180355072	1504	1456
184549376	1632	1456
188743680	1552	1456
192937984	1456	1360
197132288	1088	992
201326592	1584	1504
205520896	1248	1184
209715200	1376	1264
213909504	1328	1216
218103808	1072	992
222298112	992	928
226492416	1040	896
230686720	1456	1360
234881024	816	736
239075328	992	880
243269632	1040	960
247463936	1280	1184
251658240	864	784
255852544	784	720
260046848	1072	1024
264241152	880	800
268435456	1680	1536
276824064	1536	1344
285212672	1568	1376
293601280	1424	1328
301989888	1184	1056
310378496	1424	1280
318767104	1168	1088
327155712	1088	1024
335544320	1232	1136
343932928	1312	1120
352321536	1056	1024
360710144	896	800
369098752	992	944
377487360	864	768
385875968	496	432
394264576	832	784
402653184	736	704
411041792	480	448
419430400	672	672
427819008	480	448
436207616	544	448
444596224	176	160
452984832	384	384
461373440	128	128
469762048	96	96
478150656	112	112
486539264	176	176
494927872	96	64
503316480	0	0
511705088	0	0
520093696	0	0
528482304	0	0
536870912	0	0
553648128	0	0
570425344	0	0
587202560	0	0
603979776	0	0
620756992	0	0
637534208	0	0
654311424	0	0
671088640	0	0
687865856	0	0
704643072	0	0
721420288	0	0
738197504	0	0
754974720	0	0
771751936	0	0
788529152	0	0
805306368	0	0
822083584	0	0
838860800	0	0
855638016	0	0
872415232	0	0
889192448	0	0
905969664	0	0
922746880	0	0
939524096	0	0
956301312	0	0
973078528	0	0
989855744	0	0
1006632960	0	0
1023410176	0	0
1040187392	0	0
1056964608	0	0
1073741824	0	0
1107296256	0	0
1140850688	0	0
1174405120	0	0
1207959552	0	0
1241513984	0	0
1275068416	0	0
1308622848	0	0
1342177280	0	0
1375731712	0	0
1409286144	0	0
1442840576	0	0
1476395008	0	0
1509949440	0	0
1543503872	0	0
1577058304	0	0
1610612736	0	0
1644167168	0	0
1677721600	0	0
1711276032	0	0
1744830464	0	0
1778384896	0	0
1811939328	0	0
1845493760	0	0
1879048192	0	0
1912602624	0	0
1946157056	0	0
1979711488	0	0
2013265920	0	0
2046820352	0	0
2080374784	0	0
2113929216	0	0
2147483648	0	0
2214592512	0	0
2281701376	0	0
2348810240	0	0
2415919104	0	0
2483027968	0	0
2550136832	0	0
2617245696	0	0
2684354560	0	0
2751463424	0	0
2818572288	0	0
2885681152	0	0
2952790016	0	0
3019898880	0	0
3087007744	0	0
3154116608	0	0
3221225472	0	0
3288334336	0	0
3355443200	0	0
3422552064	0	0
3489660928	0	0
3556769792	0	0
3623878656	0	0
3690987520	0	0
3758096384	0	0
3825205248	0	0
3892314112	0	0
3959422976	0	0
4026531840	0	0
4093640704	0	0
4160749568	0	0
4227858432	0	0
~~~~~~~~~~Reuse Distance Profiler output end~~~~~~~~~~

DRAM Statistics
 CHANNEL 0
 RQ ROW_BUFFER_HIT:         61  ROW_BUFFER_MISS:     476916
 DBUS AVG_CONGESTED_CYCLE:    3.65961
 WQ ROW_BUFFER_HIT:      17332  ROW_BUFFER_MISS:     373402  FULL:          0


CPU 0 Branch Prediction Accuracy: 86.3666% MPKI: 30.6701 Average ROB Occupancy at Mispredict: 16.2865
Branch type MPKI
BRANCH_DIRECT_JUMP: 1.8e-05
BRANCH_INDIRECT: 0.843343
BRANCH_CONDITIONAL: 29.529
BRANCH_DIRECT_CALL: 2e-05
BRANCH_INDIRECT_CALL: 0.297733
BRANCH_RETURN: 2.13333e-05

