
*** ChampSim Multicore Out-of-Order Simulator ***

Warmup Instructions: 500000000
Simulation Instructions: 1500000000
Number of CPUs: 1
Off-chip DRAM Size: 4 GiB Channels: 1 Width: 64-bit Data Rate: 3200 MT/s

VirtualMemory physical capacity: 8588881920 num_ppages: 2096895
VirtualMemory page size: 4096 log2_page_size: 12

CPU 0 runs traces/458.sjeng-1088B.champsimtrace.xz
CPU 0 Bimodal branch predictor
Basic BTB sets: 1024 ways: 8 indirect buffer size: 4096 RAS size: 64
Initializing LRU.
Initializing LRU.
Initializing LRU.
Initializing LRU.
Initializing rdLRU.
Initializing LRU.
Initializing LRU.
Heartbeat CPU 0 instructions: 10000002 cycles: 2502939 heartbeat IPC: 3.9953 cumulative IPC: 3.9953 (Simulation time: 0 hr 0 min 32 sec) 
Heartbeat CPU 0 instructions: 20000001 cycles: 5006422 heartbeat IPC: 3.99443 cumulative IPC: 3.99487 (Simulation time: 0 hr 1 min 4 sec) 
Heartbeat CPU 0 instructions: 30000002 cycles: 7510371 heartbeat IPC: 3.99369 cumulative IPC: 3.99448 (Simulation time: 0 hr 1 min 35 sec) 
Heartbeat CPU 0 instructions: 40000000 cycles: 10021904 heartbeat IPC: 3.98163 cumulative IPC: 3.99126 (Simulation time: 0 hr 2 min 7 sec) 
Heartbeat CPU 0 instructions: 50000000 cycles: 12521904 heartbeat IPC: 4 cumulative IPC: 3.993 (Simulation time: 0 hr 2 min 38 sec) 
Heartbeat CPU 0 instructions: 60000000 cycles: 15021904 heartbeat IPC: 4 cumulative IPC: 3.99417 (Simulation time: 0 hr 3 min 10 sec) 
Heartbeat CPU 0 instructions: 70000002 cycles: 17527401 heartbeat IPC: 3.99123 cumulative IPC: 3.99375 (Simulation time: 0 hr 3 min 41 sec) 
Heartbeat CPU 0 instructions: 80000002 cycles: 20035238 heartbeat IPC: 3.9875 cumulative IPC: 3.99296 (Simulation time: 0 hr 4 min 13 sec) 
Heartbeat CPU 0 instructions: 90000002 cycles: 22539336 heartbeat IPC: 3.99345 cumulative IPC: 3.99302 (Simulation time: 0 hr 4 min 45 sec) 
Heartbeat CPU 0 instructions: 100000002 cycles: 25045022 heartbeat IPC: 3.99092 cumulative IPC: 3.99281 (Simulation time: 0 hr 5 min 16 sec) 
Heartbeat CPU 0 instructions: 110000003 cycles: 27550775 heartbeat IPC: 3.99082 cumulative IPC: 3.99263 (Simulation time: 0 hr 5 min 47 sec) 
Heartbeat CPU 0 instructions: 120000001 cycles: 30054251 heartbeat IPC: 3.99445 cumulative IPC: 3.99278 (Simulation time: 0 hr 6 min 19 sec) 
Heartbeat CPU 0 instructions: 130000000 cycles: 32576509 heartbeat IPC: 3.9647 cumulative IPC: 3.99061 (Simulation time: 0 hr 6 min 49 sec) 
Heartbeat CPU 0 instructions: 140000001 cycles: 35077126 heartbeat IPC: 3.99901 cumulative IPC: 3.9912 (Simulation time: 0 hr 7 min 21 sec) 
Heartbeat CPU 0 instructions: 150000002 cycles: 37578236 heartbeat IPC: 3.99823 cumulative IPC: 3.99167 (Simulation time: 0 hr 7 min 53 sec) 
Heartbeat CPU 0 instructions: 160000001 cycles: 40079082 heartbeat IPC: 3.99865 cumulative IPC: 3.99211 (Simulation time: 0 hr 8 min 25 sec) 
Heartbeat CPU 0 instructions: 170000000 cycles: 42581570 heartbeat IPC: 3.99602 cumulative IPC: 3.99234 (Simulation time: 0 hr 8 min 57 sec) 
Heartbeat CPU 0 instructions: 180000000 cycles: 45081570 heartbeat IPC: 4 cumulative IPC: 3.99276 (Simulation time: 0 hr 9 min 30 sec) 
Heartbeat CPU 0 instructions: 190000001 cycles: 47582797 heartbeat IPC: 3.99804 cumulative IPC: 3.99304 (Simulation time: 0 hr 10 min 2 sec) 
Heartbeat CPU 0 instructions: 200000003 cycles: 50082798 heartbeat IPC: 4 cumulative IPC: 3.99339 (Simulation time: 0 hr 10 min 34 sec) 
Heartbeat CPU 0 instructions: 210000000 cycles: 52585318 heartbeat IPC: 3.99597 cumulative IPC: 3.99351 (Simulation time: 0 hr 11 min 6 sec) 
Heartbeat CPU 0 instructions: 220000002 cycles: 55094112 heartbeat IPC: 3.98598 cumulative IPC: 3.99317 (Simulation time: 0 hr 11 min 38 sec) 
Heartbeat CPU 0 instructions: 230000003 cycles: 57613928 heartbeat IPC: 3.96854 cumulative IPC: 3.99209 (Simulation time: 0 hr 12 min 9 sec) 
Heartbeat CPU 0 instructions: 240000002 cycles: 60128911 heartbeat IPC: 3.97617 cumulative IPC: 3.99142 (Simulation time: 0 hr 12 min 41 sec) 
Heartbeat CPU 0 instructions: 250000002 cycles: 62635495 heartbeat IPC: 3.98949 cumulative IPC: 3.99135 (Simulation time: 0 hr 13 min 13 sec) 
Heartbeat CPU 0 instructions: 260000003 cycles: 65144992 heartbeat IPC: 3.98486 cumulative IPC: 3.9911 (Simulation time: 0 hr 13 min 44 sec) 
Heartbeat CPU 0 instructions: 270000003 cycles: 67667217 heartbeat IPC: 3.96475 cumulative IPC: 3.99012 (Simulation time: 0 hr 14 min 16 sec) 
Heartbeat CPU 0 instructions: 280000002 cycles: 70179631 heartbeat IPC: 3.98024 cumulative IPC: 3.98976 (Simulation time: 0 hr 14 min 47 sec) 
Heartbeat CPU 0 instructions: 290000003 cycles: 72688178 heartbeat IPC: 3.98637 cumulative IPC: 3.98964 (Simulation time: 0 hr 15 min 18 sec) 
Heartbeat CPU 0 instructions: 300000000 cycles: 75197527 heartbeat IPC: 3.9851 cumulative IPC: 3.98949 (Simulation time: 0 hr 15 min 50 sec) 
Heartbeat CPU 0 instructions: 310000000 cycles: 77723262 heartbeat IPC: 3.95924 cumulative IPC: 3.98851 (Simulation time: 0 hr 16 min 21 sec) 
Heartbeat CPU 0 instructions: 320000000 cycles: 80223985 heartbeat IPC: 3.99884 cumulative IPC: 3.98883 (Simulation time: 0 hr 16 min 55 sec) 
Heartbeat CPU 0 instructions: 330000000 cycles: 82724509 heartbeat IPC: 3.99916 cumulative IPC: 3.98914 (Simulation time: 0 hr 17 min 27 sec) 
Heartbeat CPU 0 instructions: 340000003 cycles: 85229181 heartbeat IPC: 3.99254 cumulative IPC: 3.98924 (Simulation time: 0 hr 17 min 58 sec) 
Heartbeat CPU 0 instructions: 350000001 cycles: 87735828 heartbeat IPC: 3.98939 cumulative IPC: 3.98925 (Simulation time: 0 hr 18 min 30 sec) 
Heartbeat CPU 0 instructions: 360000001 cycles: 90236982 heartbeat IPC: 3.99815 cumulative IPC: 3.9895 (Simulation time: 0 hr 19 min 2 sec) 
Heartbeat CPU 0 instructions: 370000003 cycles: 92742844 heartbeat IPC: 3.99064 cumulative IPC: 3.98953 (Simulation time: 0 hr 19 min 33 sec) 
Heartbeat CPU 0 instructions: 380000000 cycles: 95258077 heartbeat IPC: 3.97577 cumulative IPC: 3.98916 (Simulation time: 0 hr 20 min 4 sec) 
Heartbeat CPU 0 instructions: 390000001 cycles: 97768901 heartbeat IPC: 3.98276 cumulative IPC: 3.989 (Simulation time: 0 hr 20 min 39 sec) 
Heartbeat CPU 0 instructions: 400000000 cycles: 100269163 heartbeat IPC: 3.99958 cumulative IPC: 3.98926 (Simulation time: 0 hr 21 min 13 sec) 
Heartbeat CPU 0 instructions: 410000003 cycles: 102777715 heartbeat IPC: 3.98636 cumulative IPC: 3.98919 (Simulation time: 0 hr 21 min 45 sec) 
Heartbeat CPU 0 instructions: 420000000 cycles: 105282743 heartbeat IPC: 3.99197 cumulative IPC: 3.98926 (Simulation time: 0 hr 22 min 18 sec) 
Heartbeat CPU 0 instructions: 430000002 cycles: 107784879 heartbeat IPC: 3.99659 cumulative IPC: 3.98943 (Simulation time: 0 hr 22 min 51 sec) 
Heartbeat CPU 0 instructions: 440000003 cycles: 110286768 heartbeat IPC: 3.99698 cumulative IPC: 3.9896 (Simulation time: 0 hr 23 min 23 sec) 
Heartbeat CPU 0 instructions: 450000002 cycles: 112793601 heartbeat IPC: 3.9891 cumulative IPC: 3.98959 (Simulation time: 0 hr 23 min 53 sec) 
Heartbeat CPU 0 instructions: 460000002 cycles: 115312518 heartbeat IPC: 3.96996 cumulative IPC: 3.98916 (Simulation time: 0 hr 24 min 24 sec) 
Heartbeat CPU 0 instructions: 470000001 cycles: 117821007 heartbeat IPC: 3.98646 cumulative IPC: 3.9891 (Simulation time: 0 hr 24 min 54 sec) 
Heartbeat CPU 0 instructions: 480000000 cycles: 120324482 heartbeat IPC: 3.99445 cumulative IPC: 3.98921 (Simulation time: 0 hr 25 min 26 sec) 
Heartbeat CPU 0 instructions: 490000003 cycles: 122840127 heartbeat IPC: 3.97512 cumulative IPC: 3.98892 (Simulation time: 0 hr 25 min 57 sec) 
Heartbeat CPU 0 instructions: 500000002 cycles: 125344284 heartbeat IPC: 3.99336 cumulative IPC: 3.98901 (Simulation time: 0 hr 26 min 29 sec) 

Warmup complete CPU 0 instructions: 500000002 cycles: 125344284 (Simulation time: 0 hr 26 min 29 sec) 

Heartbeat CPU 0 instructions: 510000000 cycles: 137361833 heartbeat IPC: 0.832116 cumulative IPC: 0.832116 (Simulation time: 0 hr 27 min 11 sec) 
Heartbeat CPU 0 instructions: 520000003 cycles: 149455698 heartbeat IPC: 0.826866 cumulative IPC: 0.829483 (Simulation time: 0 hr 27 min 52 sec) 
Heartbeat CPU 0 instructions: 530000004 cycles: 161318599 heartbeat IPC: 0.842964 cumulative IPC: 0.833928 (Simulation time: 0 hr 28 min 49 sec) 
Heartbeat CPU 0 instructions: 540000004 cycles: 173293048 heartbeat IPC: 0.835111 cumulative IPC: 0.834224 (Simulation time: 0 hr 29 min 41 sec) 
Heartbeat CPU 0 instructions: 550000002 cycles: 185081533 heartbeat IPC: 0.848285 cumulative IPC: 0.836999 (Simulation time: 0 hr 30 min 18 sec) 
Heartbeat CPU 0 instructions: 560000004 cycles: 197170787 heartbeat IPC: 0.827181 cumulative IPC: 0.835346 (Simulation time: 0 hr 31 min 0 sec) 
Heartbeat CPU 0 instructions: 570000002 cycles: 209224665 heartbeat IPC: 0.829608 cumulative IPC: 0.834522 (Simulation time: 0 hr 31 min 49 sec) 
Heartbeat CPU 0 instructions: 580000002 cycles: 220610271 heartbeat IPC: 0.878302 cumulative IPC: 0.839754 (Simulation time: 0 hr 32 min 30 sec) 
Heartbeat CPU 0 instructions: 590000001 cycles: 231759050 heartbeat IPC: 0.896959 cumulative IPC: 0.845747 (Simulation time: 0 hr 33 min 11 sec) 
Heartbeat CPU 0 instructions: 600000000 cycles: 243255035 heartbeat IPC: 0.869869 cumulative IPC: 0.848099 (Simulation time: 0 hr 33 min 50 sec) 
Heartbeat CPU 0 instructions: 610000000 cycles: 254676866 heartbeat IPC: 0.875516 cumulative IPC: 0.85052 (Simulation time: 0 hr 34 min 26 sec) 
Heartbeat CPU 0 instructions: 620000001 cycles: 266261584 heartbeat IPC: 0.863206 cumulative IPC: 0.851563 (Simulation time: 0 hr 35 min 1 sec) 
Heartbeat CPU 0 instructions: 630000002 cycles: 278198098 heartbeat IPC: 0.837766 cumulative IPC: 0.850486 (Simulation time: 0 hr 35 min 38 sec) 
Heartbeat CPU 0 instructions: 640000000 cycles: 290289860 heartbeat IPC: 0.827009 cumulative IPC: 0.848765 (Simulation time: 0 hr 36 min 15 sec) 
Heartbeat CPU 0 instructions: 650000002 cycles: 301752678 heartbeat IPC: 0.872386 cumulative IPC: 0.8503 (Simulation time: 0 hr 36 min 58 sec) 
Heartbeat CPU 0 instructions: 660000000 cycles: 313735267 heartbeat IPC: 0.834544 cumulative IPC: 0.849298 (Simulation time: 0 hr 37 min 34 sec) 
Heartbeat CPU 0 instructions: 670000004 cycles: 325768991 heartbeat IPC: 0.830998 cumulative IPC: 0.848199 (Simulation time: 0 hr 38 min 10 sec) 
Heartbeat CPU 0 instructions: 680000001 cycles: 337687518 heartbeat IPC: 0.83903 cumulative IPC: 0.847684 (Simulation time: 0 hr 38 min 50 sec) 
Heartbeat CPU 0 instructions: 690000001 cycles: 349132565 heartbeat IPC: 0.87374 cumulative IPC: 0.849017 (Simulation time: 0 hr 39 min 35 sec) 
Heartbeat CPU 0 instructions: 700000003 cycles: 360574914 heartbeat IPC: 0.873947 cumulative IPC: 0.850229 (Simulation time: 0 hr 40 min 14 sec) 
Heartbeat CPU 0 instructions: 710000001 cycles: 372162624 heartbeat IPC: 0.862983 cumulative IPC: 0.850828 (Simulation time: 0 hr 40 min 51 sec) 
Heartbeat CPU 0 instructions: 720000000 cycles: 383821260 heartbeat IPC: 0.857733 cumulative IPC: 0.85114 (Simulation time: 0 hr 41 min 35 sec) 
Heartbeat CPU 0 instructions: 730000000 cycles: 395763636 heartbeat IPC: 0.837354 cumulative IPC: 0.850531 (Simulation time: 0 hr 42 min 18 sec) 
Heartbeat CPU 0 instructions: 740000001 cycles: 407562630 heartbeat IPC: 0.84753 cumulative IPC: 0.850405 (Simulation time: 0 hr 43 min 0 sec) 
Heartbeat CPU 0 instructions: 750000000 cycles: 418789681 heartbeat IPC: 0.890706 cumulative IPC: 0.851947 (Simulation time: 0 hr 43 min 49 sec) 
Heartbeat CPU 0 instructions: 760000001 cycles: 430576610 heartbeat IPC: 0.848397 cumulative IPC: 0.85181 (Simulation time: 0 hr 44 min 27 sec) 
Heartbeat CPU 0 instructions: 770000000 cycles: 442425320 heartbeat IPC: 0.843974 cumulative IPC: 0.851517 (Simulation time: 0 hr 45 min 3 sec) 
Heartbeat CPU 0 instructions: 780000003 cycles: 454003473 heartbeat IPC: 0.863696 cumulative IPC: 0.851946 (Simulation time: 0 hr 45 min 43 sec) 
Heartbeat CPU 0 instructions: 790000003 cycles: 465619164 heartbeat IPC: 0.860904 cumulative IPC: 0.852252 (Simulation time: 0 hr 46 min 21 sec) 
Heartbeat CPU 0 instructions: 800000000 cycles: 477299737 heartbeat IPC: 0.856122 cumulative IPC: 0.852381 (Simulation time: 0 hr 46 min 59 sec) 
Heartbeat CPU 0 instructions: 810000001 cycles: 488850631 heartbeat IPC: 0.865734 cumulative IPC: 0.852805 (Simulation time: 0 hr 47 min 42 sec) 
Heartbeat CPU 0 instructions: 820000000 cycles: 500630218 heartbeat IPC: 0.848926 cumulative IPC: 0.852683 (Simulation time: 0 hr 48 min 18 sec) 
Heartbeat CPU 0 instructions: 830000000 cycles: 512483367 heartbeat IPC: 0.843658 cumulative IPC: 0.852407 (Simulation time: 0 hr 48 min 53 sec) 
Heartbeat CPU 0 instructions: 840000004 cycles: 523980250 heartbeat IPC: 0.869801 cumulative IPC: 0.852908 (Simulation time: 0 hr 49 min 28 sec) 
Heartbeat CPU 0 instructions: 850000001 cycles: 535151135 heartbeat IPC: 0.895184 cumulative IPC: 0.854061 (Simulation time: 0 hr 50 min 2 sec) 
Heartbeat CPU 0 instructions: 860000001 cycles: 546752392 heartbeat IPC: 0.861976 cumulative IPC: 0.854279 (Simulation time: 0 hr 50 min 37 sec) 
Heartbeat CPU 0 instructions: 870000001 cycles: 558699408 heartbeat IPC: 0.837029 cumulative IPC: 0.853803 (Simulation time: 0 hr 51 min 11 sec) 
Heartbeat CPU 0 instructions: 880000004 cycles: 570559450 heartbeat IPC: 0.843168 cumulative IPC: 0.85352 (Simulation time: 0 hr 51 min 46 sec) 
Heartbeat CPU 0 instructions: 890000000 cycles: 582513092 heartbeat IPC: 0.836565 cumulative IPC: 0.853077 (Simulation time: 0 hr 52 min 21 sec) 
Heartbeat CPU 0 instructions: 900000000 cycles: 594391990 heartbeat IPC: 0.841829 cumulative IPC: 0.852792 (Simulation time: 0 hr 52 min 56 sec) 
Heartbeat CPU 0 instructions: 910000003 cycles: 606052737 heartbeat IPC: 0.857578 cumulative IPC: 0.852908 (Simulation time: 0 hr 53 min 31 sec) 
Heartbeat CPU 0 instructions: 920000000 cycles: 617603485 heartbeat IPC: 0.865745 cumulative IPC: 0.853209 (Simulation time: 0 hr 54 min 6 sec) 
Heartbeat CPU 0 instructions: 930000000 cycles: 629646064 heartbeat IPC: 0.830387 cumulative IPC: 0.852664 (Simulation time: 0 hr 54 min 41 sec) 
Heartbeat CPU 0 instructions: 940000002 cycles: 641512367 heartbeat IPC: 0.842723 cumulative IPC: 0.852436 (Simulation time: 0 hr 55 min 27 sec) 
Heartbeat CPU 0 instructions: 950000000 cycles: 653524174 heartbeat IPC: 0.832514 cumulative IPC: 0.851982 (Simulation time: 0 hr 56 min 2 sec) 
Heartbeat CPU 0 instructions: 960000002 cycles: 665569088 heartbeat IPC: 0.830226 cumulative IPC: 0.851497 (Simulation time: 0 hr 56 min 36 sec) 
Heartbeat CPU 0 instructions: 970000001 cycles: 677393618 heartbeat IPC: 0.845699 cumulative IPC: 0.851373 (Simulation time: 0 hr 57 min 11 sec) 
Heartbeat CPU 0 instructions: 980000002 cycles: 689395767 heartbeat IPC: 0.833184 cumulative IPC: 0.850986 (Simulation time: 0 hr 57 min 46 sec) 
Heartbeat CPU 0 instructions: 990000002 cycles: 701315158 heartbeat IPC: 0.838969 cumulative IPC: 0.850737 (Simulation time: 0 hr 58 min 21 sec) 
Heartbeat CPU 0 instructions: 1000000003 cycles: 713439238 heartbeat IPC: 0.824805 cumulative IPC: 0.850203 (Simulation time: 0 hr 58 min 56 sec) 
Heartbeat CPU 0 instructions: 1010000000 cycles: 725457218 heartbeat IPC: 0.832086 cumulative IPC: 0.84984 (Simulation time: 0 hr 59 min 31 sec) 
Heartbeat CPU 0 instructions: 1020000004 cycles: 737684698 heartbeat IPC: 0.81783 cumulative IPC: 0.849201 (Simulation time: 1 hr 0 min 7 sec) 
Heartbeat CPU 0 instructions: 1030000000 cycles: 749357124 heartbeat IPC: 0.85672 cumulative IPC: 0.849342 (Simulation time: 1 hr 0 min 42 sec) 
Heartbeat CPU 0 instructions: 1040000000 cycles: 761139121 heartbeat IPC: 0.848753 cumulative IPC: 0.849331 (Simulation time: 1 hr 1 min 18 sec) 
Heartbeat CPU 0 instructions: 1050000001 cycles: 772929444 heartbeat IPC: 0.848153 cumulative IPC: 0.849309 (Simulation time: 1 hr 1 min 54 sec) 
Heartbeat CPU 0 instructions: 1060000000 cycles: 784737824 heartbeat IPC: 0.846856 cumulative IPC: 0.849265 (Simulation time: 1 hr 2 min 30 sec) 
Heartbeat CPU 0 instructions: 1070000001 cycles: 796298796 heartbeat IPC: 0.864979 cumulative IPC: 0.849536 (Simulation time: 1 hr 3 min 17 sec) 
Heartbeat CPU 0 instructions: 1080000004 cycles: 808040983 heartbeat IPC: 0.85163 cumulative IPC: 0.849572 (Simulation time: 1 hr 4 min 1 sec) 
Heartbeat CPU 0 instructions: 1090000001 cycles: 819667463 heartbeat IPC: 0.860105 cumulative IPC: 0.849748 (Simulation time: 1 hr 4 min 47 sec) 
Heartbeat CPU 0 instructions: 1100000000 cycles: 831405735 heartbeat IPC: 0.851914 cumulative IPC: 0.849784 (Simulation time: 1 hr 5 min 22 sec) 
Heartbeat CPU 0 instructions: 1110000000 cycles: 843132700 heartbeat IPC: 0.852736 cumulative IPC: 0.849833 (Simulation time: 1 hr 6 min 2 sec) 
Heartbeat CPU 0 instructions: 1120000001 cycles: 854928884 heartbeat IPC: 0.847732 cumulative IPC: 0.849799 (Simulation time: 1 hr 6 min 45 sec) 
Heartbeat CPU 0 instructions: 1130000000 cycles: 866198141 heartbeat IPC: 0.88737 cumulative IPC: 0.85037 (Simulation time: 1 hr 7 min 21 sec) 
Heartbeat CPU 0 instructions: 1140000001 cycles: 878182626 heartbeat IPC: 0.834412 cumulative IPC: 0.850116 (Simulation time: 1 hr 7 min 57 sec) 
Heartbeat CPU 0 instructions: 1150000000 cycles: 890624960 heartbeat IPC: 0.803708 cumulative IPC: 0.849362 (Simulation time: 1 hr 8 min 33 sec) 
Heartbeat CPU 0 instructions: 1160000000 cycles: 902767849 heartbeat IPC: 0.823527 cumulative IPC: 0.848958 (Simulation time: 1 hr 9 min 8 sec) 
Heartbeat CPU 0 instructions: 1170000002 cycles: 914919504 heartbeat IPC: 0.822933 cumulative IPC: 0.848558 (Simulation time: 1 hr 9 min 44 sec) 
Heartbeat CPU 0 instructions: 1180000000 cycles: 927343489 heartbeat IPC: 0.804895 cumulative IPC: 0.847881 (Simulation time: 1 hr 10 min 19 sec) 
Heartbeat CPU 0 instructions: 1190000001 cycles: 939520335 heartbeat IPC: 0.821231 cumulative IPC: 0.847483 (Simulation time: 1 hr 10 min 55 sec) 
Heartbeat CPU 0 instructions: 1200000000 cycles: 951026534 heartbeat IPC: 0.869097 cumulative IPC: 0.847784 (Simulation time: 1 hr 11 min 30 sec) 
Heartbeat CPU 0 instructions: 1210000000 cycles: 962565087 heartbeat IPC: 0.86666 cumulative IPC: 0.848044 (Simulation time: 1 hr 12 min 5 sec) 
Heartbeat CPU 0 instructions: 1220000001 cycles: 974089779 heartbeat IPC: 0.867702 cumulative IPC: 0.848311 (Simulation time: 1 hr 12 min 41 sec) 
Heartbeat CPU 0 instructions: 1230000000 cycles: 985488453 heartbeat IPC: 0.877295 cumulative IPC: 0.848695 (Simulation time: 1 hr 13 min 16 sec) 
Heartbeat CPU 0 instructions: 1240000000 cycles: 997253611 heartbeat IPC: 0.849967 cumulative IPC: 0.848712 (Simulation time: 1 hr 13 min 52 sec) 
Heartbeat CPU 0 instructions: 1250000000 cycles: 1008986443 heartbeat IPC: 0.852309 cumulative IPC: 0.84876 (Simulation time: 1 hr 14 min 27 sec) 
Heartbeat CPU 0 instructions: 1260000004 cycles: 1020374399 heartbeat IPC: 0.878121 cumulative IPC: 0.849133 (Simulation time: 1 hr 15 min 10 sec) 
Heartbeat CPU 0 instructions: 1270000003 cycles: 1032328199 heartbeat IPC: 0.836554 cumulative IPC: 0.848968 (Simulation time: 1 hr 15 min 45 sec) 
Heartbeat CPU 0 instructions: 1280000001 cycles: 1044215027 heartbeat IPC: 0.841267 cumulative IPC: 0.848868 (Simulation time: 1 hr 16 min 19 sec) 
Heartbeat CPU 0 instructions: 1290000000 cycles: 1055943162 heartbeat IPC: 0.85265 cumulative IPC: 0.848916 (Simulation time: 1 hr 16 min 54 sec) 
Heartbeat CPU 0 instructions: 1300000002 cycles: 1067996105 heartbeat IPC: 0.829673 cumulative IPC: 0.84867 (Simulation time: 1 hr 17 min 29 sec) 
Heartbeat CPU 0 instructions: 1310000001 cycles: 1079507846 heartbeat IPC: 0.868678 cumulative IPC: 0.848911 (Simulation time: 1 hr 18 min 5 sec) 
Heartbeat CPU 0 instructions: 1320000000 cycles: 1091796897 heartbeat IPC: 0.813732 cumulative IPC: 0.848464 (Simulation time: 1 hr 18 min 39 sec) 
Heartbeat CPU 0 instructions: 1330000002 cycles: 1103780811 heartbeat IPC: 0.834452 cumulative IPC: 0.848292 (Simulation time: 1 hr 19 min 14 sec) 
Heartbeat CPU 0 instructions: 1340000000 cycles: 1115742346 heartbeat IPC: 0.836013 cumulative IPC: 0.848144 (Simulation time: 1 hr 19 min 49 sec) 
Heartbeat CPU 0 instructions: 1350000003 cycles: 1127351214 heartbeat IPC: 0.861411 cumulative IPC: 0.848298 (Simulation time: 1 hr 20 min 24 sec) 
Heartbeat CPU 0 instructions: 1360000002 cycles: 1139098501 heartbeat IPC: 0.85126 cumulative IPC: 0.848332 (Simulation time: 1 hr 21 min 0 sec) 
Heartbeat CPU 0 instructions: 1370000000 cycles: 1150831505 heartbeat IPC: 0.852296 cumulative IPC: 0.848377 (Simulation time: 1 hr 21 min 34 sec) 
Heartbeat CPU 0 instructions: 1380000003 cycles: 1162951794 heartbeat IPC: 0.825063 cumulative IPC: 0.848105 (Simulation time: 1 hr 22 min 10 sec) 
Heartbeat CPU 0 instructions: 1390000001 cycles: 1174864250 heartbeat IPC: 0.839457 cumulative IPC: 0.848007 (Simulation time: 1 hr 22 min 45 sec) 
Heartbeat CPU 0 instructions: 1400000000 cycles: 1186803912 heartbeat IPC: 0.837545 cumulative IPC: 0.847889 (Simulation time: 1 hr 23 min 20 sec) 
Heartbeat CPU 0 instructions: 1410000001 cycles: 1198672634 heartbeat IPC: 0.842551 cumulative IPC: 0.84783 (Simulation time: 1 hr 23 min 55 sec) 
Heartbeat CPU 0 instructions: 1420000001 cycles: 1210291198 heartbeat IPC: 0.860692 cumulative IPC: 0.847968 (Simulation time: 1 hr 24 min 30 sec) 
Heartbeat CPU 0 instructions: 1430000000 cycles: 1222415332 heartbeat IPC: 0.824801 cumulative IPC: 0.847712 (Simulation time: 1 hr 25 min 6 sec) 
Heartbeat CPU 0 instructions: 1440000001 cycles: 1234476464 heartbeat IPC: 0.82911 cumulative IPC: 0.847509 (Simulation time: 1 hr 25 min 48 sec) 
Heartbeat CPU 0 instructions: 1450000001 cycles: 1246631182 heartbeat IPC: 0.822726 cumulative IPC: 0.847241 (Simulation time: 1 hr 26 min 23 sec) 
Heartbeat CPU 0 instructions: 1460000003 cycles: 1258581987 heartbeat IPC: 0.836764 cumulative IPC: 0.84713 (Simulation time: 1 hr 27 min 6 sec) 
Heartbeat CPU 0 instructions: 1470000004 cycles: 1269972080 heartbeat IPC: 0.877956 cumulative IPC: 0.847437 (Simulation time: 1 hr 27 min 41 sec) 
Heartbeat CPU 0 instructions: 1480000003 cycles: 1281999018 heartbeat IPC: 0.831467 cumulative IPC: 0.847271 (Simulation time: 1 hr 28 min 16 sec) 
Heartbeat CPU 0 instructions: 1490000000 cycles: 1293665841 heartbeat IPC: 0.857131 cumulative IPC: 0.847369 (Simulation time: 1 hr 28 min 51 sec) 
Heartbeat CPU 0 instructions: 1500000001 cycles: 1305815492 heartbeat IPC: 0.823069 cumulative IPC: 0.847119 (Simulation time: 1 hr 29 min 25 sec) 
Heartbeat CPU 0 instructions: 1510000001 cycles: 1317919677 heartbeat IPC: 0.826161 cumulative IPC: 0.846907 (Simulation time: 1 hr 29 min 59 sec) 
Heartbeat CPU 0 instructions: 1520000001 cycles: 1330044152 heartbeat IPC: 0.824778 cumulative IPC: 0.846684 (Simulation time: 1 hr 30 min 34 sec) 
Heartbeat CPU 0 instructions: 1530000003 cycles: 1342007370 heartbeat IPC: 0.835896 cumulative IPC: 0.846578 (Simulation time: 1 hr 31 min 8 sec) 
Heartbeat CPU 0 instructions: 1540000000 cycles: 1354167370 heartbeat IPC: 0.822368 cumulative IPC: 0.846338 (Simulation time: 1 hr 31 min 43 sec) 
Heartbeat CPU 0 instructions: 1550000003 cycles: 1366219879 heartbeat IPC: 0.829703 cumulative IPC: 0.846177 (Simulation time: 1 hr 32 min 18 sec) 
Heartbeat CPU 0 instructions: 1560000003 cycles: 1378147513 heartbeat IPC: 0.838389 cumulative IPC: 0.846103 (Simulation time: 1 hr 32 min 53 sec) 
Heartbeat CPU 0 instructions: 1570000001 cycles: 1389919005 heartbeat IPC: 0.84951 cumulative IPC: 0.846134 (Simulation time: 1 hr 33 min 28 sec) 
Heartbeat CPU 0 instructions: 1580000004 cycles: 1401792981 heartbeat IPC: 0.842178 cumulative IPC: 0.846097 (Simulation time: 1 hr 34 min 3 sec) 
Heartbeat CPU 0 instructions: 1590000000 cycles: 1413686403 heartbeat IPC: 0.840801 cumulative IPC: 0.846049 (Simulation time: 1 hr 34 min 38 sec) 
Heartbeat CPU 0 instructions: 1600000000 cycles: 1425604005 heartbeat IPC: 0.839095 cumulative IPC: 0.845985 (Simulation time: 1 hr 35 min 13 sec) 
Heartbeat CPU 0 instructions: 1610000002 cycles: 1437592628 heartbeat IPC: 0.834124 cumulative IPC: 0.845876 (Simulation time: 1 hr 35 min 47 sec) 
Heartbeat CPU 0 instructions: 1620000003 cycles: 1449594663 heartbeat IPC: 0.833192 cumulative IPC: 0.845762 (Simulation time: 1 hr 36 min 22 sec) 
Heartbeat CPU 0 instructions: 1630000000 cycles: 1461832030 heartbeat IPC: 0.817169 cumulative IPC: 0.8455 (Simulation time: 1 hr 36 min 57 sec) 
Heartbeat CPU 0 instructions: 1640000001 cycles: 1473326911 heartbeat IPC: 0.869953 cumulative IPC: 0.845708 (Simulation time: 1 hr 37 min 31 sec) 
Heartbeat CPU 0 instructions: 1650000004 cycles: 1485240256 heartbeat IPC: 0.839395 cumulative IPC: 0.845653 (Simulation time: 1 hr 38 min 6 sec) 
Heartbeat CPU 0 instructions: 1660000003 cycles: 1497381143 heartbeat IPC: 0.823663 cumulative IPC: 0.845458 (Simulation time: 1 hr 38 min 41 sec) 
Heartbeat CPU 0 instructions: 1670000000 cycles: 1509482220 heartbeat IPC: 0.826373 cumulative IPC: 0.845291 (Simulation time: 1 hr 39 min 15 sec) 
Heartbeat CPU 0 instructions: 1680000000 cycles: 1521393832 heartbeat IPC: 0.839517 cumulative IPC: 0.845242 (Simulation time: 1 hr 39 min 50 sec) 
Heartbeat CPU 0 instructions: 1690000000 cycles: 1533152881 heartbeat IPC: 0.850409 cumulative IPC: 0.845285 (Simulation time: 1 hr 40 min 30 sec) 
Heartbeat CPU 0 instructions: 1700000001 cycles: 1545098282 heartbeat IPC: 0.837142 cumulative IPC: 0.845217 (Simulation time: 1 hr 41 min 7 sec) 
Heartbeat CPU 0 instructions: 1710000000 cycles: 1557354234 heartbeat IPC: 0.81593 cumulative IPC: 0.844966 (Simulation time: 1 hr 41 min 43 sec) 
Heartbeat CPU 0 instructions: 1720000001 cycles: 1569589030 heartbeat IPC: 0.817341 cumulative IPC: 0.844732 (Simulation time: 1 hr 42 min 24 sec) 
Heartbeat CPU 0 instructions: 1730000000 cycles: 1581757436 heartbeat IPC: 0.8218 cumulative IPC: 0.844541 (Simulation time: 1 hr 43 min 0 sec) 
Heartbeat CPU 0 instructions: 1740000000 cycles: 1593913853 heartbeat IPC: 0.822611 cumulative IPC: 0.844359 (Simulation time: 1 hr 43 min 36 sec) 
Heartbeat CPU 0 instructions: 1750000001 cycles: 1605872111 heartbeat IPC: 0.836242 cumulative IPC: 0.844293 (Simulation time: 1 hr 44 min 13 sec) 
Heartbeat CPU 0 instructions: 1760000000 cycles: 1618065550 heartbeat IPC: 0.820113 cumulative IPC: 0.844096 (Simulation time: 1 hr 44 min 53 sec) 
Heartbeat CPU 0 instructions: 1770000000 cycles: 1630180463 heartbeat IPC: 0.825429 cumulative IPC: 0.843946 (Simulation time: 1 hr 45 min 50 sec) 
Heartbeat CPU 0 instructions: 1780000003 cycles: 1642287772 heartbeat IPC: 0.825948 cumulative IPC: 0.843802 (Simulation time: 1 hr 46 min 27 sec) 
Heartbeat CPU 0 instructions: 1790000001 cycles: 1654601275 heartbeat IPC: 0.812116 cumulative IPC: 0.843547 (Simulation time: 1 hr 47 min 4 sec) 
Heartbeat CPU 0 instructions: 1800000000 cycles: 1666058555 heartbeat IPC: 0.872807 cumulative IPC: 0.843764 (Simulation time: 1 hr 47 min 40 sec) 
Heartbeat CPU 0 instructions: 1810000000 cycles: 1677672726 heartbeat IPC: 0.861017 cumulative IPC: 0.843894 (Simulation time: 1 hr 48 min 16 sec) 
Heartbeat CPU 0 instructions: 1820000000 cycles: 1689624347 heartbeat IPC: 0.836707 cumulative IPC: 0.843839 (Simulation time: 1 hr 48 min 52 sec) 
Heartbeat CPU 0 instructions: 1830000001 cycles: 1701831499 heartbeat IPC: 0.819192 cumulative IPC: 0.843648 (Simulation time: 1 hr 49 min 28 sec) 
Heartbeat CPU 0 instructions: 1840000002 cycles: 1713970926 heartbeat IPC: 0.823762 cumulative IPC: 0.843496 (Simulation time: 1 hr 50 min 4 sec) 
Heartbeat CPU 0 instructions: 1850000000 cycles: 1726032599 heartbeat IPC: 0.829072 cumulative IPC: 0.843387 (Simulation time: 1 hr 50 min 41 sec) 
Heartbeat CPU 0 instructions: 1860000001 cycles: 1738260189 heartbeat IPC: 0.817823 cumulative IPC: 0.843193 (Simulation time: 1 hr 51 min 17 sec) 
Heartbeat CPU 0 instructions: 1870000003 cycles: 1749923480 heartbeat IPC: 0.857391 cumulative IPC: 0.843295 (Simulation time: 1 hr 51 min 53 sec) 
Heartbeat CPU 0 instructions: 1880000003 cycles: 1761492314 heartbeat IPC: 0.864391 cumulative IPC: 0.843444 (Simulation time: 1 hr 52 min 30 sec) 
Heartbeat CPU 0 instructions: 1890000000 cycles: 1773122158 heartbeat IPC: 0.859856 cumulative IPC: 0.84356 (Simulation time: 1 hr 53 min 6 sec) 
Heartbeat CPU 0 instructions: 1900000002 cycles: 1784821163 heartbeat IPC: 0.854774 cumulative IPC: 0.843639 (Simulation time: 1 hr 53 min 42 sec) 
Heartbeat CPU 0 instructions: 1910000002 cycles: 1796431731 heartbeat IPC: 0.861284 cumulative IPC: 0.843762 (Simulation time: 1 hr 54 min 21 sec) 
Heartbeat CPU 0 instructions: 1920000000 cycles: 1808259122 heartbeat IPC: 0.845495 cumulative IPC: 0.843774 (Simulation time: 1 hr 55 min 19 sec) 
Heartbeat CPU 0 instructions: 1930000001 cycles: 1819929666 heartbeat IPC: 0.856858 cumulative IPC: 0.843864 (Simulation time: 1 hr 55 min 54 sec) 
Heartbeat CPU 0 instructions: 1940000001 cycles: 1831942259 heartbeat IPC: 0.83246 cumulative IPC: 0.843784 (Simulation time: 1 hr 56 min 28 sec) 
Heartbeat CPU 0 instructions: 1950000002 cycles: 1843468778 heartbeat IPC: 0.867565 cumulative IPC: 0.843943 (Simulation time: 1 hr 57 min 4 sec) 
Heartbeat CPU 0 instructions: 1960000002 cycles: 1855002664 heartbeat IPC: 0.86701 cumulative IPC: 0.844097 (Simulation time: 1 hr 57 min 39 sec) 
Heartbeat CPU 0 instructions: 1970000001 cycles: 1866534529 heartbeat IPC: 0.867162 cumulative IPC: 0.84425 (Simulation time: 1 hr 58 min 15 sec) 
Heartbeat CPU 0 instructions: 1980000000 cycles: 1878127967 heartbeat IPC: 0.862557 cumulative IPC: 0.844371 (Simulation time: 1 hr 58 min 51 sec) 
Heartbeat CPU 0 instructions: 1990000002 cycles: 1889775278 heartbeat IPC: 0.858567 cumulative IPC: 0.844465 (Simulation time: 1 hr 59 min 28 sec) 
*** Reached end of trace: traces/458.sjeng-1088B.champsimtrace.xz
Heartbeat CPU 0 instructions: 2000000002 cycles: 1900923354 heartbeat IPC: 0.897016 cumulative IPC: 0.844795 (Simulation time: 2 hr 0 min 5 sec) 
Finished CPU 0 instructions: 1500000000 cycles: 1775579070 cumulative IPC: 0.844795 (Simulation time: 2 hr 0 min 5 sec) 

ChampSim completed all CPUs

Region of Interest Statistics

CPU 0 cumulative IPC: 0.844795 instructions: 1500000000 cycles: 1775579070
cpu0_DTLB TOTAL     ACCESS:  321828207  HIT:  319158677  MISS:    2669530
cpu0_DTLB LOAD      ACCESS:  254773134  HIT:  252499222  MISS:    2273912
cpu0_DTLB RFO       ACCESS:   67055073  HIT:   66659455  MISS:     395618
cpu0_DTLB PREFETCH  ACCESS:          0  HIT:          0  MISS:          0
cpu0_DTLB WRITEBACK ACCESS:          0  HIT:          0  MISS:          0
cpu0_DTLB TRANSLATION ACCESS:          0  HIT:          0  MISS:          0
cpu0_DTLB PREFETCH  REQUESTED:          0  ISSUED:          0  USEFUL:          0  USELESS:          0
cpu0_DTLB AVERAGE MISS LATENCY: 11.3906 cycles
cpu0_ITLB TOTAL     ACCESS:  148473915  HIT:  148473900  MISS:         15
cpu0_ITLB LOAD      ACCESS:  148473915  HIT:  148473900  MISS:         15
cpu0_ITLB RFO       ACCESS:          0  HIT:          0  MISS:          0
cpu0_ITLB PREFETCH  ACCESS:          0  HIT:          0  MISS:          0
cpu0_ITLB WRITEBACK ACCESS:          0  HIT:          0  MISS:          0
cpu0_ITLB TRANSLATION ACCESS:          0  HIT:          0  MISS:          0
cpu0_ITLB PREFETCH  REQUESTED:          0  ISSUED:          0  USEFUL:          0  USELESS:          0
cpu0_ITLB AVERAGE MISS LATENCY: 217 cycles
cpu0_L1I TOTAL     ACCESS:   85532337  HIT:   85511677  MISS:      20660
cpu0_L1I LOAD      ACCESS:   85532337  HIT:   85511677  MISS:      20660
cpu0_L1I RFO       ACCESS:          0  HIT:          0  MISS:          0
cpu0_L1I PREFETCH  ACCESS:          0  HIT:          0  MISS:          0
cpu0_L1I WRITEBACK ACCESS:          0  HIT:          0  MISS:          0
cpu0_L1I TRANSLATION ACCESS:          0  HIT:          0  MISS:          0
cpu0_L1I PREFETCH  REQUESTED:          0  ISSUED:          0  USEFUL:          0  USELESS:          0
cpu0_L1I AVERAGE MISS LATENCY: 15.8651 cycles
cpu0_STLB TOTAL     ACCESS:    2669545  HIT:    2214075  MISS:     455470
cpu0_STLB LOAD      ACCESS:    2273927  HIT:    1820238  MISS:     453689
cpu0_STLB RFO       ACCESS:     395618  HIT:     393837  MISS:       1781
cpu0_STLB PREFETCH  ACCESS:          0  HIT:          0  MISS:          0
cpu0_STLB WRITEBACK ACCESS:          0  HIT:          0  MISS:          0
cpu0_STLB TRANSLATION ACCESS:          0  HIT:          0  MISS:          0
cpu0_STLB PREFETCH  REQUESTED:          0  ISSUED:          0  USEFUL:          0  USELESS:          0
cpu0_STLB AVERAGE MISS LATENCY: 13.9397 cycles
cpu0_L1D TOTAL     ACCESS:  382851436  HIT:  381945952  MISS:     905484
cpu0_L1D LOAD      ACCESS:  265593512  HIT:  264856867  MISS:     736645
cpu0_L1D RFO       ACCESS:  116802461  HIT:  116636311  MISS:     166150
cpu0_L1D PREFETCH  ACCESS:          0  HIT:          0  MISS:          0
cpu0_L1D WRITEBACK ACCESS:          0  HIT:          0  MISS:          0
cpu0_L1D TRANSLATION ACCESS:     455463  HIT:     452774  MISS:       2689
cpu0_L1D PREFETCH  REQUESTED:          0  ISSUED:          0  USEFUL:          0  USELESS:          0
cpu0_L1D AVERAGE MISS LATENCY: 116.456 cycles
cpu0_L2C TOTAL     ACCESS:    1566433  HIT:    1015678  MISS:     550755
cpu0_L2C LOAD      ACCESS:     757300  HIT:     243458  MISS:     513842
cpu0_L2C RFO       ACCESS:     166105  HIT:     131795  MISS:      34310
cpu0_L2C PREFETCH  ACCESS:          0  HIT:          0  MISS:          0
cpu0_L2C WRITEBACK ACCESS:     640339  HIT:     637842  MISS:       2497
cpu0_L2C TRANSLATION ACCESS:       2689  HIT:       2583  MISS:        106
cpu0_L2C PREFETCH  REQUESTED:          0  ISSUED:          0  USEFUL:          0  USELESS:          0
cpu0_L2C AVERAGE MISS LATENCY: 173.546 cycles
LLC TOTAL     ACCESS:    1037175  HIT:     519809  MISS:     517366
LLC LOAD      ACCESS:     513842  HIT:      26725  MISS:     487117
LLC RFO       ACCESS:      34310  HIT:       6715  MISS:      27595
LLC PREFETCH  ACCESS:          0  HIT:          0  MISS:          0
LLC WRITEBACK ACCESS:     488917  HIT:     486302  MISS:       2615
LLC TRANSLATION ACCESS:        106  HIT:         67  MISS:         39
LLC PREFETCH  REQUESTED:          0  ISSUED:          0  USEFUL:          0  USELESS:          0
LLC AVERAGE MISS LATENCY: 162.492 cycles
~~~~~~~~~~Reuse Distance Profiler output~~~~~~~~~~
0	68068400	20049568
1	44217616	22137248
2	32194176	19436816
3	24883824	17287616
4	18835312	13858192
5	15311840	11670848
6	12809312	9207552
7	11455232	8590112
8	10568160	7990160
9	10407024	7882048
10	7999568	6062176
11	8187232	6292736
12	7635488	5852528
13	7025792	5461696
14	6498048	4887216
15	5986768	4643488
16	4889040	3896448
17	4554688	3506800
18	4666624	3852512
19	4970624	3996480
20	4782752	3863040
21	4535472	3731264
22	4610192	3869488
23	4761552	3889120
24	4856144	4036784
25	4980496	4382752
26	4379952	3840992
27	4142176	3546960
28	3970928	3462816
29	3239952	2771504
30	3123184	2639728
31	3303808	2820080
32	3209888	2683264
33	2676496	2289728
34	2430528	1969696
35	2198864	1804592
36	1955936	1565872
37	1890688	1457472
38	1956048	1466528
39	1972480	1526336
40	1719904	1427984
41	1614336	1350640
42	1595600	1317424
43	1476208	1173104
44	1290544	1036464
45	1272528	1025728
46	1192608	920096
47	1095632	859264
48	1097936	837056
49	1026240	807216
50	1017232	793104
51	986960	778496
52	960720	764256
53	921328	736976
54	898320	726656
55	911520	737312
56	924960	748576
57	946928	746128
58	886464	692800
59	879200	693104
60	944112	662560
61	806384	619792
62	768480	596352
63	812128	582096
64	1410720	1074016
66	1286080	958960
68	1215280	896720
70	1238208	907984
72	1209216	890368
74	1180896	887936
76	1119632	856976
78	1063760	824240
80	1106960	876672
82	1076896	846512
84	1028512	799376
86	963824	760736
88	954656	772336
90	1033536	868432
92	946000	775440
94	921136	764000
96	899536	756432
98	903696	768080
100	912496	790176
102	868480	754160
104	816400	710624
106	810496	702640
108	768752	661392
110	749120	637984
112	689648	588304
114	689216	583824
116	654496	554288
118	601264	497072
120	566016	453696
122	510688	409248
124	513280	410320
126	486240	399248
128	918944	767024
132	883360	753328
136	870672	757440
140	836432	734848
144	787616	700304
148	750272	662336
152	748880	653264
156	762960	648192
160	747968	619680
164	707296	592512
168	687216	586928
172	659792	563360
176	646112	559040
180	575360	497488
184	550544	474640
188	540256	464448
192	511264	447936
196	474896	423808
200	453600	408128
204	433328	387120
208	385056	340608
212	376176	327040
216	374848	321344
220	370256	317104
224	355872	304288
228	338080	293648
232	303584	265584
236	276720	241440
240	260688	231408
244	249776	224512
248	224032	203888
252	208800	189328
256	405088	360096
264	406880	358368
272	372496	323840
280	350256	308272
288	332128	296240
296	326976	291584
304	348592	306880
312	357920	315520
320	352784	309744
328	331488	290272
336	337360	302624
344	362672	332224
352	357664	330016
360	332240	304336
368	327200	300304
376	315840	288624
384	311984	285200
392	300400	272944
400	294624	267568
408	274592	248448
416	263696	238544
424	251360	225904
432	241488	214080
440	238688	209744
448	248080	218016
456	242544	213200
464	240464	211280
472	237472	205168
480	234752	200288
488	235776	199808
496	239328	202384
504	245360	209456
512	470320	401504
528	456800	394112
544	442928	378896
560	431616	372576
576	429088	374768
592	391344	341360
608	353648	309792
624	318768	280160
640	285568	252016
656	266464	234288
672	276720	242192
688	275744	243296
704	280768	245712
720	291024	254336
736	297216	258864
752	299696	258544
768	309136	268576
784	314096	274992
800	334544	293712
816	356816	316480
832	377584	339664
848	402160	363136
864	417264	377248
880	454768	410080
896	466832	416608
912	467264	415920
928	468208	412352
944	458064	397552
960	435936	373344
976	409760	356256
992	402224	349856
1008	374448	335040
1024	712688	638032
1056	658928	602720
1088	625280	561424
1120	738416	654912
1152	998048	894512
1184	689984	630384
1216	499568	461200
1248	461456	427664
1280	458976	427392
1312	455360	420032
1344	465824	430080
1376	512528	469840
1408	470416	421648
1440	461840	407216
1472	492656	436944
1504	521792	462848
1536	538368	475392
1568	576464	515424
1600	605056	546064
1632	579184	525264
1664	563408	509712
1696	547680	496352
1728	527248	476912
1760	512608	463344
1792	487088	440064
1824	454048	408736
1856	424672	378992
1888	389312	345520
1920	378656	334544
1952	357280	315664
1984	338832	298672
2016	325456	289952
2048	576416	511424
2112	527952	470016
2176	455984	402000
2240	427376	380016
2304	398528	354896
2368	352512	309840
2432	315792	274224
2496	286144	246384
2560	268336	230592
2624	267872	228832
2688	241280	203120
2752	209728	174448
2816	196464	161936
2880	185360	151936
2944	172800	141024
3008	160768	131664
3072	153232	123488
3136	148032	118912
3200	143584	114944
3264	142480	114624
3328	136512	110368
3392	131184	107312
3456	126896	102272
3520	124944	102048
3584	119376	98640
3648	111392	89792
3712	106352	84576
3776	102544	81728
3840	96736	76992
3904	93728	73040
3968	87920	67552
4032	82224	63024
4096	148896	111488
4224	140944	104240
4352	128080	94320
4480	127200	94704
4608	126112	94144
4736	122000	91520
4864	117632	86128
4992	109552	78720
5120	109056	77456
5248	109568	76976
5376	103744	70896
5504	102384	70960
5632	99424	68352
5760	98304	67504
5888	94080	65600
6016	88576	60480
6144	82560	56640
6272	80960	55808
6400	80320	55392
6528	74512	51360
6656	74192	51488
6784	72000	50256
6912	70688	49392
7040	70496	48272
7168	68304	47552
7296	64464	44112
7424	56816	38672
7552	57440	37952
7680	55472	36704
7808	53264	35600
7936	51360	33600
8064	51152	33632
8192	98528	65168
8448	96976	62704
8704	91520	57904
8960	85824	56624
9216	85280	56752
9472	85456	55248
9728	78592	51104
9984	74000	47328
10240	70400	46160
10496	69360	45008
10752	65184	42016
11008	61888	39664
11264	60624	38272
11520	59424	36848
11776	57904	36208
12032	59120	37920
12288	55568	34848
12544	52288	33104
12800	49808	31920
13056	47216	29024
13312	46656	29280
13568	45472	29504
13824	42992	27424
14080	43760	27504
14336	39936	25008
14592	38000	23472
14848	37280	23472
15104	39536	25008
15360	37168	22976
15616	34976	21248
15872	35808	21872
16128	33664	20752
16384	67008	41200
16896	62784	39088
17408	58592	35920
17920	54416	33456
18432	51840	31632
18944	50640	30320
19456	46976	28032
19968	43808	26320
20480	42720	26672
20992	39760	23888
21504	38944	23136
22016	35664	20720
22528	35264	21360
23040	33344	19744
23552	31968	19872
24064	30080	17520
24576	29840	17808
25088	29136	17312
25600	27104	16160
26112	26768	16064
26624	24880	15248
27136	25456	15024
27648	22400	13200
28160	23312	13424
28672	21568	13184
29184	22080	13024
29696	19392	11088
30208	20736	11648
30720	20896	12064
31232	20064	12112
31744	19760	12112
32256	18224	10720
32768	34448	20512
33792	32416	19488
34816	30592	18128
35840	29136	17392
36864	28624	16816
37888	26864	16016
38912	25744	15376
39936	24784	15376
40960	24880	14960
41984	23392	13904
43008	23072	14096
44032	22768	13888
45056	21072	12848
46080	18896	11648
47104	19616	12320
48128	19520	11600
49152	17936	10816
50176	16960	10064
51200	16976	10320
52224	16160	9968
53248	14656	8464
54272	15200	9296
55296	12816	8128
56320	13216	8048
57344	13952	8400
58368	13408	8352
59392	11952	7504
60416	11328	6752
61440	10480	6160
62464	10448	6400
63488	10464	5792
64512	10416	6160
65536	19520	11696
67584	17984	10880
69632	16512	9824
71680	14720	8640
73728	14304	8704
75776	12592	7952
77824	13648	8208
79872	11808	7312
81920	12096	7568
83968	11248	6576
86016	10304	5776
88064	10288	5904
90112	9376	5728
92160	10144	6272
94208	9296	5376
96256	9984	5968
98304	8192	5072
100352	8176	5040
102400	8016	4864
104448	7776	4736
106496	6816	4112
108544	8000	4848
110592	6848	4160
112640	6208	3968
114688	6368	3968
116736	6224	3872
118784	6320	3840
120832	6192	3744
122880	5184	3024
124928	5600	3408
126976	5328	3200
129024	4928	2880
131072	9744	5712
135168	9408	5664
139264	8560	5344
143360	9008	5488
147456	7088	4368
151552	7808	4928
155648	7520	4784
159744	6160	3888
163840	6176	3760
167936	6112	3776
172032	5376	3520
176128	5792	3696
180224	5856	3328
184320	4512	2768
188416	4672	2832
192512	5392	3184
196608	4768	3056
200704	3984	2448
204800	4176	2432
208896	4224	2512
212992	4336	2384
217088	4304	2688
221184	3696	2256
225280	4064	2368
229376	3984	2512
233472	3792	2576
237568	3168	2176
241664	3104	2080
245760	2912	1936
249856	3088	2016
253952	3536	2208
258048	2928	1728
262144	6000	3664
270336	5280	3248
278528	5648	3264
286720	4688	3056
294912	4592	2896
303104	4960	3152
311296	4640	2992
319488	5216	3232
327680	4736	3008
335872	3728	2624
344064	4640	2800
352256	3504	2304
360448	3600	2272
368640	3104	2080
376832	3344	2080
385024	3376	2144
393216	3120	2096
401408	2912	1888
409600	2896	1824
417792	2624	1696
425984	2864	1920
434176	2672	1808
442368	2416	1584
450560	2192	1456
458752	2528	1696
466944	2208	1600
475136	2000	1392
483328	1856	1168
491520	2384	1488
499712	1904	1312
507904	1824	1168
516096	2048	1392
524288	3808	2528
540672	3280	2176
557056	3504	2320
573440	3136	2032
589824	3248	2128
606208	3312	1920
622592	2832	1984
638976	2976	1872
655360	2960	2000
671744	2496	1776
688128	2560	1856
704512	2512	1648
720896	2464	1664
737280	2400	1744
753664	2272	1344
770048	2016	1472
786432	1872	1232
802816	1664	1184
819200	1856	1200
835584	1728	1232
851968	1856	1232
868352	1808	1120
884736	1824	1312
901120	1488	1104
917504	1696	1120
933888	1248	944
950272	1520	1024
966656	1216	768
983040	1408	864
999424	1472	896
1015808	1232	928
1032192	1328	848
1048576	2144	1520
1081344	2144	1520
1114112	2096	1376
1146880	2032	1248
1179648	2000	1168
1212416	1536	1088
1245184	1600	1184
1277952	1504	1056
1310720	1824	1184
1343488	1536	1056
1376256	1600	1136
1409024	1296	800
1441792	1488	1008
1474560	1344	992
1507328	1632	944
1540096	1008	736
1572864	1104	784
1605632	1040	752
1638400	1040	848
1671168	800	608
1703936	640	464
1736704	912	672
1769472	1008	704
1802240	1024	768
1835008	1168	784
1867776	896	672
1900544	1152	832
1933312	576	384
1966080	656	544
1998848	1008	752
2031616	704	528
2064384	688	544
2097152	1728	1216
2162688	1408	912
2228224	1536	1024
2293760	1264	864
2359296	1168	768
2424832	1008	800
2490368	1024	768
2555904	864	544
2621440	1344	832
2686976	864	656
2752512	816	576
2818048	928	624
2883584	1136	752
2949120	816	704
3014656	800	576
3080192	720	560
3145728	848	608
3211264	528	416
3276800	656	512
3342336	528	416
3407872	656	464
3473408	640	464
3538944	688	480
3604480	768	512
3670016	592	464
3735552	448	304
3801088	288	224
3866624	480	352
3932160	560	304
3997696	288	224
4063232	496	416
4128768	320	192
4194304	1088	720
4325376	576	352
4456448	768	736
4587520	1008	864
4718592	752	464
4849664	816	624
4980736	640	528
5111808	640	432
5242880	688	560
5373952	672	560
5505024	528	384
5636096	560	432
5767168	576	400
5898240	416	224
6029312	432	368
6160384	592	496
6291456	448	368
6422528	432	320
6553600	432	320
6684672	448	256
6815744	576	448
6946816	576	368
7077888	528	384
7208960	416	336
7340032	560	448
7471104	416	368
7602176	608	480
7733248	384	320
7864320	528	432
7995392	384	320
8126464	336	256
8257536	272	192
8388608	736	544
8650752	624	512
8912896	1056	784
9175040	544	464
9437184	608	512
9699328	880	720
9961472	560	480
10223616	832	736
10485760	832	640
10747904	576	480
11010048	800	688
11272192	784	576
11534336	656	480
11796480	576	432
12058624	576	352
12320768	608	512
12582912	336	288
12845056	704	576
13107200	640	528
13369344	448	352
13631488	544	432
13893632	464	416
14155776	592	496
14417920	576	480
14680064	464	416
14942208	512	512
15204352	352	304
15466496	304	288
15728640	400	368
15990784	480	416
16252928	352	304
16515072	448	400
16777216	1056	816
17301504	832	768
17825792	1008	832
18350080	784	656
18874368	832	736
19398656	672	544
19922944	656	560
20447232	928	864
20971520	800	720
21495808	592	544
22020096	800	720
22544384	736	672
23068672	768	704
23592960	640	560
24117248	480	448
24641536	576	464
25165824	608	480
25690112	576	496
26214400	528	480
26738688	576	512
27262976	848	768
27787264	688	656
28311552	704	608
28835840	992	880
29360128	544	512
29884416	608	528
30408704	544	544
30932992	640	576
31457280	672	608
31981568	736	704
32505856	784	736
33030144	576	496
33554432	1520	1408
34603008	1200	1136
35651584	1216	1120
36700160	912	880
37748736	1072	992
38797312	1184	1152
39845888	1056	960
40894464	1296	1168
41943040	1232	1088
42991616	1232	1120
44040192	1200	1120
45088768	1264	1120
46137344	1152	1056
47185920	1264	1152
48234496	1344	1312
49283072	1632	1504
50331648	1072	992
51380224	1008	848
52428800	1024	896
53477376	1392	1264
54525952	1072	1008
55574528	1088	1024
56623104	1024	960
57671680	960	912
58720256	1216	1104
59768832	1008	960
60817408	976	864
61865984	784	736
62914560	1040	992
63963136	976	864
65011712	1072	976
66060288	864	816
67108864	2032	1856
69206016	2064	1872
71303168	1888	1744
73400320	2176	2080
75497472	1552	1488
77594624	2096	1920
79691776	1712	1552
81788928	1664	1568
83886080	1632	1456
85983232	1440	1344
88080384	1744	1600
90177536	1856	1792
92274688	1536	1456
94371840	1568	1424
96468992	1952	1808
98566144	1392	1296
100663296	1616	1472
102760448	1408	1264
104857600	1648	1536
106954752	1392	1232
109051904	1568	1504
111149056	1408	1312
113246208	1280	1152
115343360	1232	1136
117440512	1296	1200
119537664	1360	1248
121634816	1408	1264
123731968	1136	1104
125829120	1168	1056
127926272	1216	1120
130023424	1360	1264
132120576	1312	1232
134217728	2592	2336
138412032	2672	2448
142606336	2592	2480
146800640	2384	2176
150994944	2208	2000
155189248	2432	2224
159383552	2432	2272
163577856	1888	1792
167772160	2240	2064
171966464	1840	1696
176160768	1984	1840
180355072	2208	2064
184549376	1504	1408
188743680	2064	1904
192937984	1760	1584
197132288	1984	1808
201326592	1984	1856
205520896	1712	1536
209715200	1920	1776
213909504	1456	1392
218103808	1856	1632
222298112	1632	1456
226492416	1248	1200
230686720	1312	1248
234881024	1536	1440
239075328	1328	1264
243269632	1280	1168
247463936	1328	1232
251658240	1712	1680
255852544	1264	1216
260046848	1312	1200
264241152	1344	1280
268435456	2240	2112
276824064	2384	2208
285212672	2192	2080
293601280	2336	2144
301989888	1920	1728
310378496	1632	1536
318767104	1440	1360
327155712	1712	1568
335544320	1584	1392
343932928	1328	1296
352321536	1488	1440
360710144	1472	1392
369098752	1456	1408
377487360	1184	1152
385875968	864	816
394264576	752	704
402653184	848	800
411041792	1008	928
419430400	672	592
427819008	512	464
436207616	336	320
444596224	448	416
452984832	336	336
461373440	160	160
469762048	256	208
478150656	112	112
486539264	80	80
494927872	0	0
503316480	0	0
511705088	0	0
520093696	0	0
528482304	0	0
536870912	0	0
553648128	0	0
570425344	0	0
587202560	0	0
603979776	0	0
620756992	0	0
637534208	0	0
654311424	0	0
671088640	0	0
687865856	0	0
704643072	0	0
721420288	0	0
738197504	0	0
754974720	0	0
771751936	0	0
788529152	0	0
805306368	0	0
822083584	0	0
838860800	0	0
855638016	0	0
872415232	0	0
889192448	0	0
905969664	0	0
922746880	0	0
939524096	0	0
956301312	0	0
973078528	0	0
989855744	0	0
1006632960	0	0
1023410176	0	0
1040187392	0	0
1056964608	0	0
1073741824	0	0
1107296256	0	0
1140850688	0	0
1174405120	0	0
1207959552	0	0
1241513984	0	0
1275068416	0	0
1308622848	0	0
1342177280	0	0
1375731712	0	0
1409286144	0	0
1442840576	0	0
1476395008	0	0
1509949440	0	0
1543503872	0	0
1577058304	0	0
1610612736	0	0
1644167168	0	0
1677721600	0	0
1711276032	0	0
1744830464	0	0
1778384896	0	0
1811939328	0	0
1845493760	0	0
1879048192	0	0
1912602624	0	0
1946157056	0	0
1979711488	0	0
2013265920	0	0
2046820352	0	0
2080374784	0	0
2113929216	0	0
2147483648	0	0
2214592512	0	0
2281701376	0	0
2348810240	0	0
2415919104	0	0
2483027968	0	0
2550136832	0	0
2617245696	0	0
2684354560	0	0
2751463424	0	0
2818572288	0	0
2885681152	0	0
2952790016	0	0
3019898880	0	0
3087007744	0	0
3154116608	0	0
3221225472	0	0
3288334336	0	0
3355443200	0	0
3422552064	0	0
3489660928	0	0
3556769792	0	0
3623878656	0	0
3690987520	0	0
3758096384	0	0
3825205248	0	0
3892314112	0	0
3959422976	0	0
4026531840	0	0
4093640704	0	0
4160749568	0	0
4227858432	0	0
~~~~~~~~~~Reuse Distance Profiler output end~~~~~~~~~~

DRAM Statistics
 CHANNEL 0
 RQ ROW_BUFFER_HIT:        250  ROW_BUFFER_MISS:     514500
 DBUS AVG_CONGESTED_CYCLE:    3.62306
 WQ ROW_BUFFER_HIT:      14764  ROW_BUFFER_MISS:     451735  FULL:          0


CPU 0 Branch Prediction Accuracy: 85.297% MPKI: 32.5166 Average ROB Occupancy at Mispredict: 16.502
Branch type MPKI
BRANCH_DIRECT_JUMP: 1.8e-05
BRANCH_INDIRECT: 1.04557
BRANCH_CONDITIONAL: 31.0186
BRANCH_DIRECT_CALL: 2.53333e-05
BRANCH_INDIRECT_CALL: 0.452317
BRANCH_RETURN: 2.6e-05

