
*** ChampSim Multicore Out-of-Order Simulator ***

Warmup Instructions: 500000000
Simulation Instructions: 1500000000
Number of CPUs: 1
Off-chip DRAM Size: 4 GiB Channels: 1 Width: 64-bit Data Rate: 3200 MT/s

VirtualMemory physical capacity: 8588881920 num_ppages: 2096895
VirtualMemory page size: 4096 log2_page_size: 12

CPU 0 runs traces/459.GemsFDTD-765B.champsimtrace.xz
CPU 0 Bimodal branch predictor
Basic BTB sets: 1024 ways: 8 indirect buffer size: 4096 RAS size: 64
Initializing LRU.
Initializing LRU.
Initializing LRU.
Initializing LRU.
Initializing rdLRU.
Initializing LRU.
Initializing LRU.
Heartbeat CPU 0 instructions: 10000000 cycles: 5452119 heartbeat IPC: 1.83415 cumulative IPC: 1.83415 (Simulation time: 0 hr 2 min 0 sec) 
Heartbeat CPU 0 instructions: 20000003 cycles: 10904113 heartbeat IPC: 1.83419 cumulative IPC: 1.83417 (Simulation time: 0 hr 3 min 52 sec) 
Heartbeat CPU 0 instructions: 30000000 cycles: 16356126 heartbeat IPC: 1.83418 cumulative IPC: 1.83418 (Simulation time: 0 hr 6 min 1 sec) 
Heartbeat CPU 0 instructions: 40000000 cycles: 21808127 heartbeat IPC: 1.83419 cumulative IPC: 1.83418 (Simulation time: 0 hr 7 min 54 sec) 
Heartbeat CPU 0 instructions: 50000003 cycles: 27642161 heartbeat IPC: 1.71408 cumulative IPC: 1.80883 (Simulation time: 0 hr 9 min 59 sec) 
Heartbeat CPU 0 instructions: 60000001 cycles: 33729690 heartbeat IPC: 1.6427 cumulative IPC: 1.77885 (Simulation time: 0 hr 12 min 8 sec) 
Heartbeat CPU 0 instructions: 70000001 cycles: 39194734 heartbeat IPC: 1.82981 cumulative IPC: 1.78595 (Simulation time: 0 hr 14 min 3 sec) 
Heartbeat CPU 0 instructions: 80000000 cycles: 44659764 heartbeat IPC: 1.82982 cumulative IPC: 1.79132 (Simulation time: 0 hr 16 min 3 sec) 
Heartbeat CPU 0 instructions: 90000001 cycles: 50124782 heartbeat IPC: 1.82982 cumulative IPC: 1.79552 (Simulation time: 0 hr 17 min 57 sec) 
Heartbeat CPU 0 instructions: 100000003 cycles: 55589826 heartbeat IPC: 1.82981 cumulative IPC: 1.79889 (Simulation time: 0 hr 19 min 49 sec) 
Heartbeat CPU 0 instructions: 110000002 cycles: 61054833 heartbeat IPC: 1.82982 cumulative IPC: 1.80166 (Simulation time: 0 hr 22 min 24 sec) 
Heartbeat CPU 0 instructions: 120000004 cycles: 66519879 heartbeat IPC: 1.82981 cumulative IPC: 1.80397 (Simulation time: 0 hr 24 min 38 sec) 
Heartbeat CPU 0 instructions: 130000004 cycles: 71984922 heartbeat IPC: 1.82981 cumulative IPC: 1.80593 (Simulation time: 0 hr 26 min 46 sec) 
Heartbeat CPU 0 instructions: 140000002 cycles: 77449923 heartbeat IPC: 1.82983 cumulative IPC: 1.80762 (Simulation time: 0 hr 28 min 59 sec) 
Heartbeat CPU 0 instructions: 150000003 cycles: 82914969 heartbeat IPC: 1.82981 cumulative IPC: 1.80908 (Simulation time: 0 hr 31 min 10 sec) 
Heartbeat CPU 0 instructions: 160000004 cycles: 88379980 heartbeat IPC: 1.82982 cumulative IPC: 1.81036 (Simulation time: 0 hr 33 min 10 sec) 
Heartbeat CPU 0 instructions: 170000003 cycles: 93845020 heartbeat IPC: 1.82981 cumulative IPC: 1.8115 (Simulation time: 0 hr 35 min 18 sec) 
Heartbeat CPU 0 instructions: 180000003 cycles: 99310064 heartbeat IPC: 1.82981 cumulative IPC: 1.81251 (Simulation time: 0 hr 37 min 20 sec) 
Heartbeat CPU 0 instructions: 190000001 cycles: 104775067 heartbeat IPC: 1.82982 cumulative IPC: 1.81341 (Simulation time: 0 hr 39 min 27 sec) 
Heartbeat CPU 0 instructions: 200000000 cycles: 110249006 heartbeat IPC: 1.82684 cumulative IPC: 1.81408 (Simulation time: 0 hr 41 min 25 sec) 
Heartbeat CPU 0 instructions: 210000000 cycles: 115933370 heartbeat IPC: 1.75921 cumulative IPC: 1.81139 (Simulation time: 0 hr 43 min 25 sec) 
Heartbeat CPU 0 instructions: 220000000 cycles: 121616970 heartbeat IPC: 1.75945 cumulative IPC: 1.80896 (Simulation time: 0 hr 45 min 17 sec) 
Heartbeat CPU 0 instructions: 230000003 cycles: 127300591 heartbeat IPC: 1.75944 cumulative IPC: 1.80675 (Simulation time: 0 hr 47 min 20 sec) 
Heartbeat CPU 0 instructions: 240000004 cycles: 132984216 heartbeat IPC: 1.75944 cumulative IPC: 1.80473 (Simulation time: 0 hr 49 min 15 sec) 
Heartbeat CPU 0 instructions: 250000002 cycles: 138667831 heartbeat IPC: 1.75944 cumulative IPC: 1.80287 (Simulation time: 0 hr 51 min 12 sec) 
Heartbeat CPU 0 instructions: 260000001 cycles: 144351449 heartbeat IPC: 1.75944 cumulative IPC: 1.80116 (Simulation time: 0 hr 53 min 9 sec) 
Heartbeat CPU 0 instructions: 270000000 cycles: 150035051 heartbeat IPC: 1.75945 cumulative IPC: 1.79958 (Simulation time: 0 hr 55 min 7 sec) 
Heartbeat CPU 0 instructions: 280000001 cycles: 155718669 heartbeat IPC: 1.75944 cumulative IPC: 1.79811 (Simulation time: 0 hr 57 min 5 sec) 
Heartbeat CPU 0 instructions: 290000002 cycles: 161402293 heartbeat IPC: 1.75944 cumulative IPC: 1.79675 (Simulation time: 0 hr 59 min 3 sec) 
Heartbeat CPU 0 instructions: 300000003 cycles: 167085910 heartbeat IPC: 1.75944 cumulative IPC: 1.79548 (Simulation time: 1 hr 1 min 51 sec) 
Heartbeat CPU 0 instructions: 310000003 cycles: 172769526 heartbeat IPC: 1.75944 cumulative IPC: 1.7943 (Simulation time: 1 hr 4 min 4 sec) 
Heartbeat CPU 0 instructions: 320000003 cycles: 178808344 heartbeat IPC: 1.65595 cumulative IPC: 1.78963 (Simulation time: 1 hr 6 min 18 sec) 
Heartbeat CPU 0 instructions: 330000000 cycles: 184492465 heartbeat IPC: 1.75929 cumulative IPC: 1.78869 (Simulation time: 1 hr 8 min 41 sec) 
Heartbeat CPU 0 instructions: 340000003 cycles: 190176127 heartbeat IPC: 1.75943 cumulative IPC: 1.78782 (Simulation time: 1 hr 11 min 28 sec) 
Heartbeat CPU 0 instructions: 350000004 cycles: 195859769 heartbeat IPC: 1.75944 cumulative IPC: 1.78699 (Simulation time: 1 hr 13 min 31 sec) 
Heartbeat CPU 0 instructions: 360000000 cycles: 201543425 heartbeat IPC: 1.75943 cumulative IPC: 1.78622 (Simulation time: 1 hr 16 min 2 sec) 
Heartbeat CPU 0 instructions: 370000000 cycles: 207227066 heartbeat IPC: 1.75944 cumulative IPC: 1.78548 (Simulation time: 1 hr 17 min 57 sec) 
Heartbeat CPU 0 instructions: 380000000 cycles: 212910728 heartbeat IPC: 1.75943 cumulative IPC: 1.78479 (Simulation time: 1 hr 19 min 50 sec) 
Heartbeat CPU 0 instructions: 390000001 cycles: 218594385 heartbeat IPC: 1.75943 cumulative IPC: 1.78413 (Simulation time: 1 hr 21 min 45 sec) 
Heartbeat CPU 0 instructions: 400000000 cycles: 224278032 heartbeat IPC: 1.75943 cumulative IPC: 1.7835 (Simulation time: 1 hr 23 min 39 sec) 
Heartbeat CPU 0 instructions: 410000001 cycles: 229961687 heartbeat IPC: 1.75943 cumulative IPC: 1.78291 (Simulation time: 1 hr 25 min 42 sec) 
Heartbeat CPU 0 instructions: 420000001 cycles: 235645333 heartbeat IPC: 1.75943 cumulative IPC: 1.78234 (Simulation time: 1 hr 27 min 51 sec) 
Heartbeat CPU 0 instructions: 430000000 cycles: 241328982 heartbeat IPC: 1.75943 cumulative IPC: 1.7818 (Simulation time: 1 hr 29 min 45 sec) 
Heartbeat CPU 0 instructions: 440000001 cycles: 247012697 heartbeat IPC: 1.75941 cumulative IPC: 1.78128 (Simulation time: 1 hr 31 min 40 sec) 
Heartbeat CPU 0 instructions: 450000001 cycles: 252701280 heartbeat IPC: 1.75791 cumulative IPC: 1.78076 (Simulation time: 1 hr 34 min 15 sec) 
Heartbeat CPU 0 instructions: 460000003 cycles: 258385159 heartbeat IPC: 1.75936 cumulative IPC: 1.78029 (Simulation time: 1 hr 36 min 10 sec) 
Heartbeat CPU 0 instructions: 470000001 cycles: 264069030 heartbeat IPC: 1.75936 cumulative IPC: 1.77984 (Simulation time: 1 hr 38 min 4 sec) 
Heartbeat CPU 0 instructions: 480000000 cycles: 269752889 heartbeat IPC: 1.75937 cumulative IPC: 1.77941 (Simulation time: 1 hr 39 min 58 sec) 
Heartbeat CPU 0 instructions: 490000003 cycles: 275436759 heartbeat IPC: 1.75937 cumulative IPC: 1.77899 (Simulation time: 1 hr 41 min 52 sec) 
Heartbeat CPU 0 instructions: 500000001 cycles: 281120636 heartbeat IPC: 1.75936 cumulative IPC: 1.7786 (Simulation time: 1 hr 43 min 48 sec) 

Warmup complete CPU 0 instructions: 500000001 cycles: 281120636 (Simulation time: 1 hr 43 min 48 sec) 

Heartbeat CPU 0 instructions: 510000001 cycles: 295109566 heartbeat IPC: 0.714851 cumulative IPC: 0.714851 (Simulation time: 1 hr 46 min 36 sec) 
Heartbeat CPU 0 instructions: 520000000 cycles: 309116368 heartbeat IPC: 0.713939 cumulative IPC: 0.714395 (Simulation time: 1 hr 49 min 7 sec) 
Heartbeat CPU 0 instructions: 530000000 cycles: 323116707 heartbeat IPC: 0.714268 cumulative IPC: 0.714352 (Simulation time: 1 hr 51 min 38 sec) 
Heartbeat CPU 0 instructions: 540000002 cycles: 336985365 heartbeat IPC: 0.72105 cumulative IPC: 0.716015 (Simulation time: 1 hr 54 min 27 sec) 
Heartbeat CPU 0 instructions: 550000003 cycles: 347809153 heartbeat IPC: 0.923891 cumulative IPC: 0.749754 (Simulation time: 1 hr 56 min 25 sec) 
Heartbeat CPU 0 instructions: 560000001 cycles: 361873184 heartbeat IPC: 0.711034 cumulative IPC: 0.743011 (Simulation time: 1 hr 58 min 53 sec) 
Heartbeat CPU 0 instructions: 570000004 cycles: 375815162 heartbeat IPC: 0.717259 cumulative IPC: 0.739219 (Simulation time: 2 hr 1 min 22 sec) 
Heartbeat CPU 0 instructions: 580000003 cycles: 389903062 heartbeat IPC: 0.709829 cumulative IPC: 0.735413 (Simulation time: 2 hr 3 min 52 sec) 
Heartbeat CPU 0 instructions: 590000000 cycles: 403895357 heartbeat IPC: 0.714679 cumulative IPC: 0.73305 (Simulation time: 2 hr 6 min 23 sec) 
Heartbeat CPU 0 instructions: 600000002 cycles: 417825053 heartbeat IPC: 0.717891 cumulative IPC: 0.731505 (Simulation time: 2 hr 8 min 50 sec) 
Heartbeat CPU 0 instructions: 610000002 cycles: 431887109 heartbeat IPC: 0.711134 cumulative IPC: 0.729605 (Simulation time: 2 hr 11 min 18 sec) 
Heartbeat CPU 0 instructions: 620000001 cycles: 445879536 heartbeat IPC: 0.714672 cumulative IPC: 0.728337 (Simulation time: 2 hr 13 min 46 sec) 
Heartbeat CPU 0 instructions: 630000001 cycles: 459938539 heartbeat IPC: 0.711288 cumulative IPC: 0.726997 (Simulation time: 2 hr 16 min 13 sec) 
Heartbeat CPU 0 instructions: 640000004 cycles: 473919444 heartbeat IPC: 0.715262 cumulative IPC: 0.726146 (Simulation time: 2 hr 18 min 40 sec) 
Heartbeat CPU 0 instructions: 650000002 cycles: 487997215 heartbeat IPC: 0.71034 cumulative IPC: 0.72507 (Simulation time: 2 hr 21 min 9 sec) 
Heartbeat CPU 0 instructions: 660000000 cycles: 499880431 heartbeat IPC: 0.841523 cumulative IPC: 0.731396 (Simulation time: 2 hr 23 min 10 sec) 
Heartbeat CPU 0 instructions: 670000003 cycles: 516248656 heartbeat IPC: 0.61094 cumulative IPC: 0.72301 (Simulation time: 2 hr 25 min 14 sec) 
Heartbeat CPU 0 instructions: 680000001 cycles: 529315227 heartbeat IPC: 0.765312 cumulative IPC: 0.725237 (Simulation time: 2 hr 26 min 55 sec) 
Heartbeat CPU 0 instructions: 690000003 cycles: 535652976 heartbeat IPC: 1.57785 cumulative IPC: 0.746467 (Simulation time: 2 hr 27 min 53 sec) 
Heartbeat CPU 0 instructions: 700000000 cycles: 541834552 heartbeat IPC: 1.61771 cumulative IPC: 0.767124 (Simulation time: 2 hr 28 min 51 sec) 
Heartbeat CPU 0 instructions: 710000000 cycles: 552009222 heartbeat IPC: 0.982833 cumulative IPC: 0.775226 (Simulation time: 2 hr 30 min 26 sec) 
Heartbeat CPU 0 instructions: 720000003 cycles: 562236616 heartbeat IPC: 0.977766 cumulative IPC: 0.782595 (Simulation time: 2 hr 32 min 23 sec) 
Heartbeat CPU 0 instructions: 730000002 cycles: 572563108 heartbeat IPC: 0.968383 cumulative IPC: 0.789178 (Simulation time: 2 hr 34 min 22 sec) 
Heartbeat CPU 0 instructions: 740000001 cycles: 581183065 heartbeat IPC: 1.1601 cumulative IPC: 0.799834 (Simulation time: 2 hr 36 min 8 sec) 
Heartbeat CPU 0 instructions: 750000002 cycles: 589496721 heartbeat IPC: 1.20284 cumulative IPC: 0.810698 (Simulation time: 2 hr 37 min 51 sec) 
Heartbeat CPU 0 instructions: 760000002 cycles: 597594286 heartbeat IPC: 1.23494 cumulative IPC: 0.821553 (Simulation time: 2 hr 39 min 32 sec) 
Heartbeat CPU 0 instructions: 770000000 cycles: 605373005 heartbeat IPC: 1.28556 cumulative IPC: 0.832685 (Simulation time: 2 hr 41 min 11 sec) 
Heartbeat CPU 0 instructions: 780000003 cycles: 613000212 heartbeat IPC: 1.3111 cumulative IPC: 0.84368 (Simulation time: 2 hr 42 min 50 sec) 
Heartbeat CPU 0 instructions: 790000000 cycles: 621752994 heartbeat IPC: 1.14249 cumulative IPC: 0.851358 (Simulation time: 2 hr 44 min 36 sec) 
Heartbeat CPU 0 instructions: 800000002 cycles: 632014390 heartbeat IPC: 0.974526 cumulative IPC: 0.85496 (Simulation time: 2 hr 46 min 33 sec) 
Heartbeat CPU 0 instructions: 810000001 cycles: 642386110 heartbeat IPC: 0.96416 cumulative IPC: 0.858095 (Simulation time: 2 hr 48 min 32 sec) 
Heartbeat CPU 0 instructions: 820000002 cycles: 650986512 heartbeat IPC: 1.16274 cumulative IPC: 0.865178 (Simulation time: 2 hr 50 min 16 sec) 
Heartbeat CPU 0 instructions: 830000002 cycles: 659295499 heartbeat IPC: 1.20352 cumulative IPC: 0.872612 (Simulation time: 2 hr 51 min 59 sec) 
Heartbeat CPU 0 instructions: 840000000 cycles: 667347500 heartbeat IPC: 1.24193 cumulative IPC: 0.880312 (Simulation time: 2 hr 53 min 41 sec) 
Heartbeat CPU 0 instructions: 850000003 cycles: 675215610 heartbeat IPC: 1.27095 cumulative IPC: 0.888111 (Simulation time: 2 hr 55 min 21 sec) 
Heartbeat CPU 0 instructions: 860000004 cycles: 682748154 heartbeat IPC: 1.32757 cumulative IPC: 0.896353 (Simulation time: 2 hr 56 min 59 sec) 
Heartbeat CPU 0 instructions: 870000004 cycles: 691747970 heartbeat IPC: 1.11113 cumulative IPC: 0.90106 (Simulation time: 2 hr 58 min 49 sec) 
Heartbeat CPU 0 instructions: 880000002 cycles: 702018849 heartbeat IPC: 0.973626 cumulative IPC: 0.902831 (Simulation time: 3 hr 0 min 48 sec) 
Heartbeat CPU 0 instructions: 890000000 cycles: 712233342 heartbeat IPC: 0.979001 cumulative IPC: 0.904636 (Simulation time: 3 hr 2 min 46 sec) 
Heartbeat CPU 0 instructions: 900000002 cycles: 720613041 heartbeat IPC: 1.19336 cumulative IPC: 0.910141 (Simulation time: 3 hr 4 min 31 sec) 
Heartbeat CPU 0 instructions: 910000000 cycles: 728880212 heartbeat IPC: 1.2096 cumulative IPC: 0.91567 (Simulation time: 3 hr 6 min 14 sec) 
Heartbeat CPU 0 instructions: 920000000 cycles: 736889623 heartbeat IPC: 1.24853 cumulative IPC: 0.921519 (Simulation time: 3 hr 7 min 55 sec) 
Heartbeat CPU 0 instructions: 930000004 cycles: 744728291 heartbeat IPC: 1.27573 cumulative IPC: 0.927508 (Simulation time: 3 hr 9 min 36 sec) 
Heartbeat CPU 0 instructions: 940000002 cycles: 752206668 heartbeat IPC: 1.33719 cumulative IPC: 0.934012 (Simulation time: 3 hr 11 min 13 sec) 
Heartbeat CPU 0 instructions: 950000001 cycles: 761367280 heartbeat IPC: 1.09163 cumulative IPC: 0.937019 (Simulation time: 3 hr 13 min 3 sec) 
Heartbeat CPU 0 instructions: 960000003 cycles: 771641853 heartbeat IPC: 0.973277 cumulative IPC: 0.937778 (Simulation time: 3 hr 15 min 0 sec) 
Heartbeat CPU 0 instructions: 970000002 cycles: 781736147 heartbeat IPC: 0.990659 cumulative IPC: 0.938844 (Simulation time: 3 hr 16 min 56 sec) 
Heartbeat CPU 0 instructions: 980000004 cycles: 790286524 heartbeat IPC: 1.16954 cumulative IPC: 0.942718 (Simulation time: 3 hr 18 min 41 sec) 
Heartbeat CPU 0 instructions: 990000000 cycles: 798602977 heartbeat IPC: 1.20244 cumulative IPC: 0.946892 (Simulation time: 3 hr 20 min 24 sec) 
Heartbeat CPU 0 instructions: 1000000003 cycles: 806590589 heartbeat IPC: 1.25194 cumulative IPC: 0.951529 (Simulation time: 3 hr 22 min 4 sec) 
Heartbeat CPU 0 instructions: 1010000002 cycles: 814397248 heartbeat IPC: 1.28096 cumulative IPC: 0.956352 (Simulation time: 3 hr 23 min 43 sec) 
Heartbeat CPU 0 instructions: 1020000000 cycles: 821907400 heartbeat IPC: 1.33153 cumulative IPC: 0.961562 (Simulation time: 3 hr 25 min 21 sec) 
Heartbeat CPU 0 instructions: 1030000002 cycles: 840306778 heartbeat IPC: 0.543497 cumulative IPC: 0.947806 (Simulation time: 3 hr 27 min 52 sec) 
Heartbeat CPU 0 instructions: 1040000003 cycles: 864923909 heartbeat IPC: 0.406221 cumulative IPC: 0.924969 (Simulation time: 3 hr 30 min 54 sec) 
Heartbeat CPU 0 instructions: 1050000000 cycles: 889595066 heartbeat IPC: 0.405331 cumulative IPC: 0.9039 (Simulation time: 3 hr 33 min 59 sec) 
Heartbeat CPU 0 instructions: 1060000000 cycles: 914280391 heartbeat IPC: 0.405099 cumulative IPC: 0.884453 (Simulation time: 3 hr 37 min 2 sec) 
Heartbeat CPU 0 instructions: 1070000001 cycles: 938970007 heartbeat IPC: 0.405029 cumulative IPC: 0.86646 (Simulation time: 3 hr 40 min 5 sec) 
Heartbeat CPU 0 instructions: 1080000001 cycles: 963525753 heartbeat IPC: 0.407237 cumulative IPC: 0.849935 (Simulation time: 3 hr 43 min 7 sec) 
Heartbeat CPU 0 instructions: 1090000004 cycles: 988042957 heartbeat IPC: 0.407877 cumulative IPC: 0.834604 (Simulation time: 3 hr 46 min 10 sec) 
Heartbeat CPU 0 instructions: 1100000001 cycles: 1012735617 heartbeat IPC: 0.404979 cumulative IPC: 0.820103 (Simulation time: 3 hr 49 min 14 sec) 
Heartbeat CPU 0 instructions: 1110000001 cycles: 1037416034 heartbeat IPC: 0.40518 cumulative IPC: 0.806563 (Simulation time: 3 hr 52 min 17 sec) 
Heartbeat CPU 0 instructions: 1120000000 cycles: 1062043732 heartbeat IPC: 0.406047 cumulative IPC: 0.793932 (Simulation time: 3 hr 55 min 21 sec) 
Heartbeat CPU 0 instructions: 1130000004 cycles: 1086771533 heartbeat IPC: 0.404403 cumulative IPC: 0.781976 (Simulation time: 3 hr 58 min 24 sec) 
Heartbeat CPU 0 instructions: 1140000002 cycles: 1111386725 heartbeat IPC: 0.406253 cumulative IPC: 0.770837 (Simulation time: 4 hr 1 min 28 sec) 
Heartbeat CPU 0 instructions: 1150000002 cycles: 1136080624 heartbeat IPC: 0.404958 cumulative IPC: 0.76027 (Simulation time: 4 hr 4 min 32 sec) 
Heartbeat CPU 0 instructions: 1160000004 cycles: 1160786156 heartbeat IPC: 0.404768 cumulative IPC: 0.750285 (Simulation time: 4 hr 7 min 35 sec) 
Heartbeat CPU 0 instructions: 1170000004 cycles: 1185475421 heartbeat IPC: 0.405034 cumulative IPC: 0.74086 (Simulation time: 4 hr 10 min 39 sec) 
Heartbeat CPU 0 instructions: 1180000004 cycles: 1210211622 heartbeat IPC: 0.404266 cumulative IPC: 0.731898 (Simulation time: 4 hr 13 min 43 sec) 
Heartbeat CPU 0 instructions: 1190000001 cycles: 1234910188 heartbeat IPC: 0.404882 cumulative IPC: 0.72343 (Simulation time: 4 hr 16 min 47 sec) 
Heartbeat CPU 0 instructions: 1200000001 cycles: 1259574754 heartbeat IPC: 0.40544 cumulative IPC: 0.715414 (Simulation time: 4 hr 19 min 52 sec) 
Heartbeat CPU 0 instructions: 1210000000 cycles: 1284259414 heartbeat IPC: 0.40511 cumulative IPC: 0.707778 (Simulation time: 4 hr 22 min 55 sec) 
Heartbeat CPU 0 instructions: 1220000000 cycles: 1308988263 heartbeat IPC: 0.404386 cumulative IPC: 0.700479 (Simulation time: 4 hr 25 min 59 sec) 
Heartbeat CPU 0 instructions: 1230000000 cycles: 1333634770 heartbeat IPC: 0.405737 cumulative IPC: 0.693577 (Simulation time: 4 hr 29 min 2 sec) 
Heartbeat CPU 0 instructions: 1240000000 cycles: 1358253601 heartbeat IPC: 0.406193 cumulative IPC: 0.687009 (Simulation time: 4 hr 32 min 4 sec) 
Heartbeat CPU 0 instructions: 1250000004 cycles: 1382946143 heartbeat IPC: 0.404981 cumulative IPC: 0.680689 (Simulation time: 4 hr 35 min 7 sec) 
Heartbeat CPU 0 instructions: 1260000001 cycles: 1407646288 heartbeat IPC: 0.404856 cumulative IPC: 0.674641 (Simulation time: 4 hr 38 min 10 sec) 
Heartbeat CPU 0 instructions: 1270000000 cycles: 1432393537 heartbeat IPC: 0.404085 cumulative IPC: 0.668825 (Simulation time: 4 hr 41 min 14 sec) 
Heartbeat CPU 0 instructions: 1280000001 cycles: 1457013851 heartbeat IPC: 0.406169 cumulative IPC: 0.663326 (Simulation time: 4 hr 44 min 17 sec) 
Heartbeat CPU 0 instructions: 1290000000 cycles: 1481675626 heartbeat IPC: 0.405486 cumulative IPC: 0.658029 (Simulation time: 4 hr 47 min 21 sec) 
Heartbeat CPU 0 instructions: 1300000003 cycles: 1506334367 heartbeat IPC: 0.405536 cumulative IPC: 0.652947 (Simulation time: 4 hr 50 min 25 sec) 
Heartbeat CPU 0 instructions: 1310000000 cycles: 1531062228 heartbeat IPC: 0.404402 cumulative IPC: 0.64803 (Simulation time: 4 hr 53 min 29 sec) 
Heartbeat CPU 0 instructions: 1320000004 cycles: 1555776952 heartbeat IPC: 0.404617 cumulative IPC: 0.643311 (Simulation time: 4 hr 56 min 34 sec) 
Heartbeat CPU 0 instructions: 1330000003 cycles: 1580376423 heartbeat IPC: 0.406513 cumulative IPC: 0.638827 (Simulation time: 4 hr 59 min 38 sec) 
Heartbeat CPU 0 instructions: 1340000004 cycles: 1605054442 heartbeat IPC: 0.405219 cumulative IPC: 0.634473 (Simulation time: 5 hr 2 min 41 sec) 
Heartbeat CPU 0 instructions: 1350000004 cycles: 1629728835 heartbeat IPC: 0.405278 cumulative IPC: 0.630279 (Simulation time: 5 hr 5 min 44 sec) 
Heartbeat CPU 0 instructions: 1360000004 cycles: 1654366515 heartbeat IPC: 0.405882 cumulative IPC: 0.626253 (Simulation time: 5 hr 8 min 48 sec) 
Heartbeat CPU 0 instructions: 1370000000 cycles: 1679022729 heartbeat IPC: 0.405577 cumulative IPC: 0.622361 (Simulation time: 5 hr 11 min 52 sec) 
Heartbeat CPU 0 instructions: 1380000000 cycles: 1703725251 heartbeat IPC: 0.404817 cumulative IPC: 0.618584 (Simulation time: 5 hr 14 min 56 sec) 
Heartbeat CPU 0 instructions: 1390000000 cycles: 1728370876 heartbeat IPC: 0.405752 cumulative IPC: 0.614959 (Simulation time: 5 hr 18 min 0 sec) 
Heartbeat CPU 0 instructions: 1400000000 cycles: 1753060520 heartbeat IPC: 0.405028 cumulative IPC: 0.611438 (Simulation time: 5 hr 21 min 5 sec) 
Heartbeat CPU 0 instructions: 1410000001 cycles: 1777558348 heartbeat IPC: 0.408199 cumulative IPC: 0.608111 (Simulation time: 5 hr 24 min 8 sec) 
Heartbeat CPU 0 instructions: 1420000004 cycles: 1802228786 heartbeat IPC: 0.405344 cumulative IPC: 0.604822 (Simulation time: 5 hr 27 min 11 sec) 
Heartbeat CPU 0 instructions: 1430000002 cycles: 1826851312 heartbeat IPC: 0.406132 cumulative IPC: 0.601657 (Simulation time: 5 hr 30 min 15 sec) 
Heartbeat CPU 0 instructions: 1440000003 cycles: 1844722756 heartbeat IPC: 0.559552 cumulative IPC: 0.601176 (Simulation time: 5 hr 32 min 55 sec) 
Heartbeat CPU 0 instructions: 1450000004 cycles: 1859608377 heartbeat IPC: 0.671789 cumulative IPC: 0.601842 (Simulation time: 5 hr 35 min 26 sec) 
Heartbeat CPU 0 instructions: 1460000001 cycles: 1874501076 heartbeat IPC: 0.67147 cumulative IPC: 0.602493 (Simulation time: 5 hr 37 min 55 sec) 
Heartbeat CPU 0 instructions: 1470000002 cycles: 1889392079 heartbeat IPC: 0.671547 cumulative IPC: 0.603132 (Simulation time: 5 hr 40 min 24 sec) 
Heartbeat CPU 0 instructions: 1480000000 cycles: 1904284444 heartbeat IPC: 0.671485 cumulative IPC: 0.603759 (Simulation time: 5 hr 42 min 54 sec) 
Heartbeat CPU 0 instructions: 1490000001 cycles: 1919178248 heartbeat IPC: 0.67142 cumulative IPC: 0.604374 (Simulation time: 5 hr 45 min 24 sec) 
Heartbeat CPU 0 instructions: 1500000000 cycles: 1934064631 heartbeat IPC: 0.671755 cumulative IPC: 0.604981 (Simulation time: 5 hr 47 min 54 sec) 
Heartbeat CPU 0 instructions: 1510000002 cycles: 1948958091 heartbeat IPC: 0.671436 cumulative IPC: 0.605575 (Simulation time: 5 hr 50 min 23 sec) 
Heartbeat CPU 0 instructions: 1520000003 cycles: 1963840866 heartbeat IPC: 0.671918 cumulative IPC: 0.606161 (Simulation time: 5 hr 52 min 53 sec) 
Heartbeat CPU 0 instructions: 1530000000 cycles: 1978732103 heartbeat IPC: 0.671536 cumulative IPC: 0.606735 (Simulation time: 5 hr 55 min 23 sec) 
Heartbeat CPU 0 instructions: 1540000001 cycles: 1993618878 heartbeat IPC: 0.671737 cumulative IPC: 0.6073 (Simulation time: 5 hr 57 min 52 sec) 
Heartbeat CPU 0 instructions: 1550000001 cycles: 2008503823 heartbeat IPC: 0.67182 cumulative IPC: 0.607856 (Simulation time: 6 hr 0 min 22 sec) 
Heartbeat CPU 0 instructions: 1560000001 cycles: 2023388657 heartbeat IPC: 0.671825 cumulative IPC: 0.608402 (Simulation time: 6 hr 2 min 52 sec) 
Heartbeat CPU 0 instructions: 1570000004 cycles: 2038271819 heartbeat IPC: 0.6719 cumulative IPC: 0.60894 (Simulation time: 6 hr 5 min 23 sec) 
Heartbeat CPU 0 instructions: 1580000000 cycles: 2062597944 heartbeat IPC: 0.411081 cumulative IPC: 0.606238 (Simulation time: 6 hr 8 min 52 sec) 
Heartbeat CPU 0 instructions: 1590000000 cycles: 2077092054 heartbeat IPC: 0.689935 cumulative IPC: 0.606914 (Simulation time: 6 hr 11 min 20 sec) 
Heartbeat CPU 0 instructions: 1600000004 cycles: 2091537759 heartbeat IPC: 0.692248 cumulative IPC: 0.607595 (Simulation time: 6 hr 13 min 48 sec) 
Heartbeat CPU 0 instructions: 1610000001 cycles: 2105987432 heartbeat IPC: 0.692057 cumulative IPC: 0.608264 (Simulation time: 6 hr 16 min 16 sec) 
Heartbeat CPU 0 instructions: 1620000000 cycles: 2120432395 heartbeat IPC: 0.692283 cumulative IPC: 0.608923 (Simulation time: 6 hr 18 min 45 sec) 
Heartbeat CPU 0 instructions: 1630000002 cycles: 2134872986 heartbeat IPC: 0.692493 cumulative IPC: 0.609574 (Simulation time: 6 hr 21 min 13 sec) 
Heartbeat CPU 0 instructions: 1640000000 cycles: 2149325296 heartbeat IPC: 0.691931 cumulative IPC: 0.610211 (Simulation time: 6 hr 23 min 41 sec) 
Heartbeat CPU 0 instructions: 1650000004 cycles: 2163765381 heartbeat IPC: 0.692517 cumulative IPC: 0.610843 (Simulation time: 6 hr 26 min 8 sec) 
Heartbeat CPU 0 instructions: 1660000003 cycles: 2178207337 heartbeat IPC: 0.692427 cumulative IPC: 0.611464 (Simulation time: 6 hr 28 min 35 sec) 
Heartbeat CPU 0 instructions: 1670000003 cycles: 2192652667 heartbeat IPC: 0.692265 cumulative IPC: 0.612074 (Simulation time: 6 hr 31 min 2 sec) 
Heartbeat CPU 0 instructions: 1680000003 cycles: 2207099088 heartbeat IPC: 0.692213 cumulative IPC: 0.612676 (Simulation time: 6 hr 33 min 30 sec) 
Heartbeat CPU 0 instructions: 1690000002 cycles: 2221548183 heartbeat IPC: 0.692085 cumulative IPC: 0.613267 (Simulation time: 6 hr 35 min 57 sec) 
Heartbeat CPU 0 instructions: 1700000001 cycles: 2235993583 heartbeat IPC: 0.692262 cumulative IPC: 0.613851 (Simulation time: 6 hr 38 min 24 sec) 
Heartbeat CPU 0 instructions: 1710000001 cycles: 2250436794 heartbeat IPC: 0.692367 cumulative IPC: 0.614426 (Simulation time: 6 hr 40 min 51 sec) 
Heartbeat CPU 0 instructions: 1720000000 cycles: 2264886145 heartbeat IPC: 0.692073 cumulative IPC: 0.614992 (Simulation time: 6 hr 43 min 19 sec) 
Heartbeat CPU 0 instructions: 1730000001 cycles: 2279100700 heartbeat IPC: 0.703504 cumulative IPC: 0.615622 (Simulation time: 6 hr 45 min 45 sec) 
Heartbeat CPU 0 instructions: 1740000002 cycles: 2293178783 heartbeat IPC: 0.710324 cumulative IPC: 0.616284 (Simulation time: 6 hr 48 min 11 sec) 
Heartbeat CPU 0 instructions: 1750000001 cycles: 2307204877 heartbeat IPC: 0.712957 cumulative IPC: 0.616954 (Simulation time: 6 hr 50 min 37 sec) 
Heartbeat CPU 0 instructions: 1760000001 cycles: 2321298972 heartbeat IPC: 0.709517 cumulative IPC: 0.617593 (Simulation time: 6 hr 53 min 3 sec) 
Heartbeat CPU 0 instructions: 1770000001 cycles: 2335362650 heartbeat IPC: 0.711052 cumulative IPC: 0.618233 (Simulation time: 6 hr 55 min 30 sec) 
Heartbeat CPU 0 instructions: 1780000000 cycles: 2349350161 heartbeat IPC: 0.714923 cumulative IPC: 0.618887 (Simulation time: 6 hr 57 min 55 sec) 
Heartbeat CPU 0 instructions: 1790000001 cycles: 2363387353 heartbeat IPC: 0.712393 cumulative IPC: 0.619517 (Simulation time: 7 hr 0 min 22 sec) 
Heartbeat CPU 0 instructions: 1800000001 cycles: 2377418732 heartbeat IPC: 0.712688 cumulative IPC: 0.620141 (Simulation time: 7 hr 2 min 48 sec) 
Heartbeat CPU 0 instructions: 1810000000 cycles: 2391428607 heartbeat IPC: 0.713782 cumulative IPC: 0.620762 (Simulation time: 7 hr 5 min 15 sec) 
Heartbeat CPU 0 instructions: 1820000004 cycles: 2405511329 heartbeat IPC: 0.71009 cumulative IPC: 0.621355 (Simulation time: 7 hr 7 min 43 sec) 
Heartbeat CPU 0 instructions: 1830000002 cycles: 2419574227 heartbeat IPC: 0.711091 cumulative IPC: 0.621945 (Simulation time: 7 hr 10 min 11 sec) 
Heartbeat CPU 0 instructions: 1840000000 cycles: 2433550693 heartbeat IPC: 0.715488 cumulative IPC: 0.622552 (Simulation time: 7 hr 12 min 36 sec) 
Heartbeat CPU 0 instructions: 1850000000 cycles: 2445934282 heartbeat IPC: 0.80752 cumulative IPC: 0.62361 (Simulation time: 7 hr 14 min 49 sec) 
Heartbeat CPU 0 instructions: 1860000000 cycles: 2460028344 heartbeat IPC: 0.709519 cumulative IPC: 0.624166 (Simulation time: 7 hr 17 min 15 sec) 
Heartbeat CPU 0 instructions: 1870000004 cycles: 2474123169 heartbeat IPC: 0.709481 cumulative IPC: 0.624714 (Simulation time: 7 hr 19 min 41 sec) 
Heartbeat CPU 0 instructions: 1880000003 cycles: 2488167695 heartbeat IPC: 0.712021 cumulative IPC: 0.62527 (Simulation time: 7 hr 22 min 7 sec) 
Heartbeat CPU 0 instructions: 1890000003 cycles: 2502251804 heartbeat IPC: 0.71002 cumulative IPC: 0.625807 (Simulation time: 7 hr 24 min 33 sec) 
Heartbeat CPU 0 instructions: 1900000003 cycles: 2516423654 heartbeat IPC: 0.705624 cumulative IPC: 0.626313 (Simulation time: 7 hr 27 min 0 sec) 
Heartbeat CPU 0 instructions: 1910000003 cycles: 2530527045 heartbeat IPC: 0.709049 cumulative IPC: 0.626832 (Simulation time: 7 hr 29 min 29 sec) 
Heartbeat CPU 0 instructions: 1920000003 cycles: 2544592435 heartbeat IPC: 0.710965 cumulative IPC: 0.627355 (Simulation time: 7 hr 31 min 55 sec) 
Heartbeat CPU 0 instructions: 1930000000 cycles: 2558679651 heartbeat IPC: 0.709863 cumulative IPC: 0.627865 (Simulation time: 7 hr 34 min 21 sec) 
Heartbeat CPU 0 instructions: 1940000003 cycles: 2572791578 heartbeat IPC: 0.708621 cumulative IPC: 0.628362 (Simulation time: 7 hr 36 min 48 sec) 
Heartbeat CPU 0 instructions: 1950000002 cycles: 2586922995 heartbeat IPC: 0.707643 cumulative IPC: 0.628848 (Simulation time: 7 hr 39 min 17 sec) 
Heartbeat CPU 0 instructions: 1960000002 cycles: 2601022042 heartbeat IPC: 0.709268 cumulative IPC: 0.629337 (Simulation time: 7 hr 41 min 44 sec) 
Heartbeat CPU 0 instructions: 1970000001 cycles: 2615380320 heartbeat IPC: 0.696462 cumulative IPC: 0.62975 (Simulation time: 7 hr 44 min 13 sec) 
Heartbeat CPU 0 instructions: 1980000002 cycles: 2630544339 heartbeat IPC: 0.659456 cumulative IPC: 0.629942 (Simulation time: 7 hr 46 min 49 sec) 
Heartbeat CPU 0 instructions: 1990000003 cycles: 2645505888 heartbeat IPC: 0.66838 cumulative IPC: 0.630185 (Simulation time: 7 hr 49 min 22 sec) 
*** Reached end of trace: traces/459.GemsFDTD-765B.champsimtrace.xz
Heartbeat CPU 0 instructions: 2000000002 cycles: 2660538246 heartbeat IPC: 0.665232 cumulative IPC: 0.630406 (Simulation time: 7 hr 51 min 55 sec) 
Finished CPU 0 instructions: 1500000001 cycles: 2379417610 cumulative IPC: 0.630406 (Simulation time: 7 hr 51 min 55 sec) 

ChampSim completed all CPUs

Region of Interest Statistics

CPU 0 cumulative IPC: 0.630406 instructions: 1500000001 cycles: 2379417610
cpu0_DTLB TOTAL     ACCESS:  577903143  HIT:  566519460  MISS:   11383683
cpu0_DTLB LOAD      ACCESS:  518260641  HIT:  508672197  MISS:    9588444
cpu0_DTLB RFO       ACCESS:   59642502  HIT:   57847263  MISS:    1795239
cpu0_DTLB PREFETCH  ACCESS:          0  HIT:          0  MISS:          0
cpu0_DTLB WRITEBACK ACCESS:          0  HIT:          0  MISS:          0
cpu0_DTLB TRANSLATION ACCESS:          0  HIT:          0  MISS:          0
cpu0_DTLB PREFETCH  REQUESTED:          0  ISSUED:          0  USEFUL:          0  USELESS:          0
cpu0_DTLB AVERAGE MISS LATENCY: 11.96 cycles
cpu0_ITLB TOTAL     ACCESS:   22379211  HIT:   22379181  MISS:         30
cpu0_ITLB LOAD      ACCESS:   22379211  HIT:   22379181  MISS:         30
cpu0_ITLB RFO       ACCESS:          0  HIT:          0  MISS:          0
cpu0_ITLB PREFETCH  ACCESS:          0  HIT:          0  MISS:          0
cpu0_ITLB WRITEBACK ACCESS:          0  HIT:          0  MISS:          0
cpu0_ITLB TRANSLATION ACCESS:          0  HIT:          0  MISS:          0
cpu0_ITLB PREFETCH  REQUESTED:          0  ISSUED:          0  USEFUL:          0  USELESS:          0
cpu0_ITLB AVERAGE MISS LATENCY: 284.433 cycles
cpu0_L1I TOTAL     ACCESS:  111961168  HIT:  111960258  MISS:        910
cpu0_L1I LOAD      ACCESS:  111961168  HIT:  111960258  MISS:        910
cpu0_L1I RFO       ACCESS:          0  HIT:          0  MISS:          0
cpu0_L1I PREFETCH  ACCESS:          0  HIT:          0  MISS:          0
cpu0_L1I WRITEBACK ACCESS:          0  HIT:          0  MISS:          0
cpu0_L1I TRANSLATION ACCESS:          0  HIT:          0  MISS:          0
cpu0_L1I PREFETCH  REQUESTED:          0  ISSUED:          0  USEFUL:          0  USELESS:          0
cpu0_L1I AVERAGE MISS LATENCY: 354.784 cycles
cpu0_STLB TOTAL     ACCESS:   11383713  HIT:   10376567  MISS:    1007146
cpu0_STLB LOAD      ACCESS:    9588474  HIT:    8583933  MISS:    1004541
cpu0_STLB RFO       ACCESS:    1795239  HIT:    1792634  MISS:       2605
cpu0_STLB PREFETCH  ACCESS:          0  HIT:          0  MISS:          0
cpu0_STLB WRITEBACK ACCESS:          0  HIT:          0  MISS:          0
cpu0_STLB TRANSLATION ACCESS:          0  HIT:          0  MISS:          0
cpu0_STLB PREFETCH  REQUESTED:          0  ISSUED:          0  USEFUL:          0  USELESS:          0
cpu0_STLB AVERAGE MISS LATENCY: 33.3679 cycles
cpu0_L1D TOTAL     ACCESS:  640694945  HIT:  613350006  MISS:   27344939
cpu0_L1D LOAD      ACCESS:  550232691  HIT:  523113926  MISS:   27118765
cpu0_L1D RFO       ACCESS:   89495991  HIT:   89338550  MISS:     157441
cpu0_L1D PREFETCH  ACCESS:          0  HIT:          0  MISS:          0
cpu0_L1D WRITEBACK ACCESS:          0  HIT:          0  MISS:          0
cpu0_L1D TRANSLATION ACCESS:     966263  HIT:     897530  MISS:      68733
cpu0_L1D PREFETCH  REQUESTED:          0  ISSUED:          0  USEFUL:          0  USELESS:          0
cpu0_L1D AVERAGE MISS LATENCY: 293.799 cycles
cpu0_L2C TOTAL     ACCESS:   35911951  HIT:   18784852  MISS:   17127099
cpu0_L2C LOAD      ACCESS:   27119675  HIT:   10127539  MISS:   16992136
cpu0_L2C RFO       ACCESS:     157441  HIT:      24475  MISS:     132966
cpu0_L2C PREFETCH  ACCESS:          0  HIT:          0  MISS:          0
cpu0_L2C WRITEBACK ACCESS:    8566102  HIT:    8565658  MISS:        444
cpu0_L2C TRANSLATION ACCESS:      68733  HIT:      67180  MISS:       1553
cpu0_L2C PREFETCH  REQUESTED:          0  ISSUED:          0  USEFUL:          0  USELESS:          0
cpu0_L2C AVERAGE MISS LATENCY: 451.492 cycles
LLC TOTAL     ACCESS:   23986602  HIT:    7342172  MISS:   16644430
LLC LOAD      ACCESS:   16992130  HIT:     399974  MISS:   16592156
LLC RFO       ACCESS:     132966  HIT:      86748  MISS:      46218
LLC PREFETCH  ACCESS:          0  HIT:          0  MISS:          0
LLC WRITEBACK ACCESS:    6859953  HIT:    6854778  MISS:       5175
LLC TRANSLATION ACCESS:       1553  HIT:        672  MISS:        881
LLC PREFETCH  REQUESTED:          0  ISSUED:          0  USEFUL:          0  USELESS:          0
LLC AVERAGE MISS LATENCY: 442.976 cycles
~~~~~~~~~~Reuse Distance Profiler output~~~~~~~~~~
0	41095408	11013584
1	24473152	17537664
2	26309280	23160400
3	29020448	26658816
4	25149552	22283856
5	26339680	20470400
6	29490640	22411168
7	29044832	21547632
8	27486048	21552816
9	23106128	19333520
10	20625840	18222832
11	18985104	15922032
12	17527872	15832928
13	17368240	16217120
14	16840416	16169504
15	13052192	12291680
16	11564624	11067680
17	9786656	9270720
18	9738880	9262880
19	9869328	9375664
20	8351904	7914352
21	7717472	7288608
22	6992592	6567568
23	7880160	7218176
24	6076128	5628736
25	5643952	5238608
26	5826640	5435168
27	6182496	5805264
28	6075696	5684512
29	6365024	5977552
30	6899024	6584112
31	7182288	6842192
32	6611072	6232064
33	6419088	5990432
34	5487792	5038368
35	4725408	4300496
36	4208448	3769472
37	4341520	3944368
38	4163632	3750848
39	3662336	3246016
40	3543392	3093488
41	3418176	3010352
42	3565152	3104496
43	3376512	2948496
44	3115680	2687312
45	3049200	2593696
46	2942384	2563408
47	2816272	2456704
48	2443824	2074080
49	2290320	1924768
50	2177536	1828272
51	2158320	1792848
52	2316112	1963312
53	2372096	2057168
54	2474800	2192512
55	2509424	2237808
56	2682880	2404976
57	2582336	2330496
58	2504064	2270240
59	2513408	2309712
60	2428512	2226832
61	2506736	2322080
62	2555216	2396640
63	2566592	2396016
64	4809072	4464192
66	4803872	4504112
68	5340064	5024000
70	6151152	5847248
72	6454944	6137600
74	6410896	6069440
76	6181824	5821776
78	5653232	5384592
80	6073744	5805712
82	7076640	6809472
84	7166640	6865536
86	6832080	6501248
88	6661744	6361776
90	6920928	6639648
92	7006448	6694544
94	7317904	6980736
96	8320144	7908640
98	9473408	8844112
100	10496544	9476640
102	11718384	10318624
104	13097904	11688032
106	14574608	13072832
108	14483232	13060368
110	14683104	13250352
112	11313120	10269408
114	6565392	5953312
116	3953424	3561472
118	2813424	2538384
120	2203312	1985984
122	1649792	1481744
124	1425184	1269584
126	1271024	1113792
128	2217776	1968752
132	1856528	1652560
136	1583872	1446704
140	1502240	1402896
144	1491088	1413824
148	1498896	1453856
152	1529440	1502592
156	1503760	1468800
160	1183104	1159520
164	968528	944384
168	916400	902496
172	845552	831088
176	827888	776672
180	805744	747440
184	684208	648560
188	674560	658672
192	634880	629760
196	598688	596800
200	574400	574128
204	564160	564000
208	605440	605360
212	546976	546880
216	433280	433088
220	355104	354992
224	275008	274960
228	265840	265808
232	205504	205472
236	161808	161744
240	138304	138240
244	100944	100912
248	78368	78320
252	54304	54304
256	79584	79584
264	59280	59280
272	39872	39872
280	22672	22672
288	16112	16112
296	9440	9440
304	5584	5584
312	2192	2192
320	480	480
328	640	640
336	368	368
344	3712	3712
352	1008	1008
360	448	448
368	496	496
376	512	512
384	80	80
392	48	48
400	400	400
408	256	256
416	1408	1408
424	2176	2176
432	5936	5936
440	8320	8320
448	10512	10512
456	34160	34160
464	29664	29664
472	32496	32496
480	32928	32928
488	29280	29280
496	27168	27168
504	9168	9168
512	15824	15824
528	29520	29520
544	70416	70416
560	86384	86384
576	97424	97424
592	180720	180720
608	100080	100080
624	11632	11632
640	8000	8000
656	18512	18512
672	48272	48272
688	37248	37248
704	34992	34992
720	31488	31488
736	6352	6352
752	8272	8272
768	10992	10992
784	33232	33232
800	48928	48928
816	57200	57200
832	68496	68496
848	57472	57472
864	23424	23424
880	26480	26480
896	32944	32944
912	21904	21904
928	16144	16144
944	20192	20192
960	12112	12112
976	11296	11296
992	12640	12640
1008	20128	20128
1024	211104	211104
1056	185312	185312
1088	76704	76704
1120	63488	63488
1152	64704	64704
1184	31248	31248
1216	44608	44608
1248	151648	151648
1280	325648	325648
1312	85552	85552
1344	159408	159408
1376	830096	830096
1408	269744	269680
1440	8624	8480
1472	528	512
1504	128	128
1536	16	16
1568	112	112
1600	608	608
1632	1360	1360
1664	4208	4208
1696	26816	26816
1728	91472	91472
1760	226672	226672
1792	405584	405584
1824	374896	374896
1856	252880	252880
1888	274304	274304
1920	306192	306192
1952	233728	233728
1984	157040	157040
2016	105696	105696
2048	115216	115216
2112	21440	21440
2176	3120	3120
2240	0	0
2304	0	0
2368	0	0
2432	0	0
2496	0	0
2560	0	0
2624	0	0
2688	0	0
2752	0	0
2816	0	0
2880	0	0
2944	0	0
3008	0	0
3072	0	0
3136	0	0
3200	0	0
3264	0	0
3328	0	0
3392	0	0
3456	0	0
3520	0	0
3584	0	0
3648	0	0
3712	0	0
3776	0	0
3840	0	0
3904	0	0
3968	0	0
4032	0	0
4096	0	0
4224	0	0
4352	0	0
4480	4912	4912
4608	1440	1440
4736	0	0
4864	0	0
4992	0	0
5120	0	0
5248	16	0
5376	0	0
5504	32	0
5632	0	0
5760	0	0
5888	0	0
6016	208	208
6144	832	816
6272	3456	3456
6400	10208	10192
6528	17264	17232
6656	15584	15584
6784	7696	7696
6912	4800	4800
7040	4032	4016
7168	2016	2016
7296	480	480
7424	160	160
7552	6336	6336
7680	19824	19808
7808	16000	16000
7936	9568	9552
8064	10192	10176
8192	37568	37536
8448	11296	11296
8704	0	0
8960	16	0
9216	0	0
9472	48	32
9728	0	0
9984	176	144
10240	13744	13728
10496	56208	56208
10752	16	0
11008	16	16
11264	32	16
11520	16	16
11776	0	0
12032	32	0
12288	64	32
12544	32	16
12800	160	128
13056	176	144
13312	256	240
13568	256	240
13824	240	224
14080	192	192
14336	208	208
14592	7904	7888
14848	14704	14688
15104	45936	45920
15360	976	976
15616	160	144
15872	224	224
16128	208	208
16384	512	464
16896	512	496
17408	352	320
17920	480	448
18432	384	352
18944	384	352
19456	464	416
19968	384	352
20480	400	352
20992	464	432
21504	41568	41552
22016	1209872	1209872
22528	1158976	1158928
23040	325632	325584
23552	58608	58560
24064	1744	1712
24576	416	384
25088	528	480
25600	368	336
26112	432	384
26624	336	336
27136	368	352
27648	432	432
28160	320	256
28672	448	448
29184	336	336
29696	2128	2000
30208	633648	633520
30720	1357248	1356864
31232	864256	863760
31744	1884016	1883488
32256	1655264	1654688
32768	10848	9776
33792	1312	240
34816	1328	224
35840	976	240
36864	1456	256
37888	1216	240
38912	1360	272
39936	1328	288
40960	1084896	1083504
41984	1731760	1730880
43008	1248	288
44032	1248	304
45056	1456	320
46080	1504	400
47104	1504	320
48128	1280	336
49152	1152	320
50176	1488	352
51200	1312	272
52224	1328	288
53248	1184	240
54272	1168	224
55296	1264	272
56320	1152	240
57344	1264	160
58368	1392	32
59392	1296	64
60416	1232	48
61440	1264	48
62464	1376	80
63488	1232	96
64512	1360	64
65536	2608	80
67584	2848	592
69632	2912	112
71680	4144	96
73728	4896	112
75776	1840	144
77824	704	80
79872	784	48
81920	576	144
83968	864	288
86016	1264	480
88064	944	304
90112	832	272
92160	2720	2000
94208	1264	752
96256	1024	352
98304	752	224
100352	560	96
102400	784	144
104448	2032	240
106496	2160	96
108544	1680	192
110592	1296	480
112640	880	576
114688	928	576
116736	480	144
118784	560	288
120832	400	304
122880	352	208
124928	240	112
126976	368	320
129024	448	336
131072	1008	768
135168	1552	1152
139264	1680	1312
143360	864	336
147456	1088	864
151552	1056	560
155648	784	416
159744	592	272
163840	976	224
167936	1136	336
172032	1280	656
176128	1360	880
180224	1328	656
184320	2944	2432
188416	1120	576
192512	752	144
196608	976	736
200704	656	448
204800	1344	912
208896	1456	896
212992	848	480
217088	1088	496
221184	480	240
225280	62816	62576
229376	2224	1680
233472	2496	1616
237568	1632	1024
241664	608	288
245760	816	304
249856	149600	149312
253952	71328	71152
258048	67696	67232
262144	1584	576
270336	124192	122880
278528	126384	125584
286720	10816	9968
294912	90320	89488
303104	1488	624
311296	54752	54272
319488	530496	528992
327680	260832	260000
335872	1696	1040
344064	2896	2256
352256	2048	496
360448	1136	528
368640	1440	432
376832	2624	1600
385024	1920	544
393216	1200	432
401408	1219856	1218912
409600	1156272	1155520
417792	1312	640
425984	1408	976
434176	2000	928
442368	1968	992
450560	1712	944
458752	1008	576
466944	2480	1088
475136	1152	528
483328	1040	432
491520	2272	816
499712	2320	1856
507904	2496	1472
516096	1440	784
524288	3184	2000
540672	3232	1392
557056	3152	1648
573440	4080	1840
589824	2848	1312
606208	4256	2736
622592	3200	1632
638976	3776	2240
655360	4688	2256
671744	10928	9952
688128	1504	592
704512	4096	2736
720896	3744	2448
737280	4048	3104
753664	1904	1696
770048	848	304
786432	1088	880
802816	448	272
819200	400	224
835584	1008	176
851968	480	208
868352	336	176
884736	112	96
901120	0	0
917504	48	48
933888	16	16
950272	32	16
966656	32	32
983040	0	0
999424	16	16
1015808	32	32
1032192	0	0
1048576	32	32
1081344	16	16
1114112	32	32
1146880	16	16
1179648	0	0
1212416	32	32
1245184	32	32
1277952	16	16
1310720	16	16
1343488	16	16
1376256	4336	4336
1409024	1888	1888
1441792	96	96
1474560	48	48
1507328	208	192
1540096	64	64
1572864	128	128
1605632	48	48
1638400	1632	1632
1671168	3696	3696
1703936	448	448
1736704	64	64
1769472	112	112
1802240	96	96
1835008	64	64
1867776	96	96
1900544	128	128
1933312	64	48
1966080	80	80
1998848	80	80
2031616	32	32
2064384	112	112
2097152	192	192
2162688	64	64
2228224	208	208
2293760	160	160
2359296	240	240
2424832	400	400
2490368	400	400
2555904	336	336
2621440	416	416
2686976	336	336
2752512	368	368
2818048	672	672
2883584	480	480
2949120	272	272
3014656	416	416
3080192	688	688
3145728	608	608
3211264	368	368
3276800	496	496
3342336	304	304
3407872	512	512
3473408	544	544
3538944	400	400
3604480	368	368
3670016	336	336
3735552	384	384
3801088	640	640
3866624	256	256
3932160	224	224
3997696	368	368
4063232	320	320
4128768	432	432
4194304	1536	1536
4325376	1088	1088
4456448	800	800
4587520	1760	1760
4718592	2176	2176
4849664	182352	182352
4980736	88416	88416
5111808	3232	3232
5242880	5824	5824
5373952	5936	5936
5505024	5392	5392
5636096	2944	2928
5767168	1472	1472
5898240	1904	1904
6029312	1568	1568
6160384	1968	1968
6291456	1728	1728
6422528	1680	1680
6553600	1728	1728
6684672	1520	1520
6815744	2064	2064
6946816	7408	7408
7077888	2256	2256
7208960	4816	4816
7340032	4704	4704
7471104	3600	3600
7602176	2304	2288
7733248	2112	2112
7864320	2272	2272
7995392	2112	2112
8126464	2240	2240
8257536	2640	2640
8388608	4928	4928
8650752	4560	4560
8912896	4592	4592
9175040	5024	5024
9437184	5328	5328
9699328	4384	4384
9961472	4512	4512
10223616	4352	4352
10485760	4720	4720
10747904	4064	4064
11010048	4368	4368
11272192	4368	4368
11534336	4912	4912
11796480	4640	4640
12058624	4976	4976
12320768	4192	4192
12582912	4112	4112
12845056	3872	3872
13107200	4688	4688
13369344	4672	4672
13631488	4592	4592
13893632	4880	4880
14155776	4752	4752
14417920	4592	4592
14680064	4320	4320
14942208	4672	4672
15204352	5424	5424
15466496	4416	4416
15728640	4560	4560
15990784	4944	4944
16252928	4416	4416
16515072	4960	4960
16777216	10784	10784
17301504	8336	8336
17825792	8784	8784
18350080	8816	8816
18874368	7280	7280
19398656	7200	7200
19922944	6624	6624
20447232	7616	7616
20971520	7184	7184
21495808	6912	6912
22020096	7248	7248
22544384	7632	7632
23068672	7280	7280
23592960	6912	6912
24117248	6256	6256
24641536	6864	6864
25165824	7280	7280
25690112	6640	6640
26214400	7280	7280
26738688	6864	6864
27262976	4576	4576
27787264	4384	4384
28311552	4144	4144
28835840	4208	4208
29360128	4480	4480
29884416	3168	3168
30408704	2880	2880
30932992	2800	2800
31457280	2944	2944
31981568	3104	3104
32505856	2800	2800
33030144	3136	3136
33554432	5632	5632
34603008	6496	6496
35651584	6480	6480
36700160	6608	6608
37748736	998032	998032
38797312	7632	7632
39845888	8256	8256
40894464	7888	7888
41943040	9104	9104
42991616	8704	8704
44040192	9088	9088
45088768	8928	8928
46137344	8976	8976
47185920	9184	9184
48234496	9488	9488
49283072	8608	8608
50331648	9216	9216
51380224	9520	9520
52428800	8720	8720
53477376	10192	10192
54525952	12736	12736
55574528	12288	12288
56623104	11968	11968
57671680	9424	9424
58720256	9456	9456
59768832	9840	9840
60817408	9824	9824
61865984	9744	9744
62914560	10032	10032
63963136	10176	10176
65011712	9216	9216
66060288	9824	9824
67108864	23632	23632
69206016	21776	21776
71303168	23104	23104
73400320	44320	44320
75497472	40608	40608
77594624	303568	303568
79691776	76496	76496
81788928	39440	39440
83886080	39600	39600
85983232	39760	39744
88080384	37584	37584
90177536	11152	11152
92274688	10912	10912
94371840	9824	9824
96468992	8448	8448
98566144	8560	8560
100663296	7840	7840
102760448	8592	8592
104857600	7728	7728
106954752	6864	6864
109051904	5312	5312
111149056	4256	4256
113246208	3024	3024
115343360	1664	1664
117440512	464	464
119537664	352	352
121634816	496	496
123731968	480	480
125829120	336	336
127926272	2320	2320
130023424	3152	3152
132120576	4736	4736
134217728	11776	11776
138412032	12656	12656
142606336	8304	8304
146800640	6464	6464
150994944	48992	48976
155189248	65392	65392
159383552	55824	55824
163577856	63712	63712
167772160	27472	27472
171966464	6352	6352
176160768	6560	6560
180355072	6368	6368
184549376	6736	6704
188743680	9184	9184
192937984	10896	10896
197132288	10688	10688
201326592	9360	9360
205520896	8416	8416
209715200	17728	17728
213909504	14576	14576
218103808	17280	17280
222298112	38624	38624
226492416	10064	10064
230686720	10864	10864
234881024	20560	20560
239075328	8736	8736
243269632	3488	3472
247463936	1312	1312
251658240	1040	1040
255852544	1296	1296
260046848	656	656
264241152	976	976
268435456	1856	1856
276824064	2512	2512
285212672	7056	7056
293601280	9536	9536
301989888	27824	27824
310378496	4224	4224
318767104	4688	4688
327155712	5136	5136
335544320	5904	5888
343932928	12960	12960
352321536	13472	13472
360710144	12816	12816
369098752	5136	5136
377487360	3168	3168
385875968	3680	3680
394264576	4640	4640
402653184	6912	6912
411041792	6864	6864
419430400	7024	7024
427819008	11920	11920
436207616	11536	11536
444596224	1808	1808
452984832	640	640
461373440	144	144
469762048	352	352
478150656	81552	81552
486539264	129232	129232
494927872	76336	76336
503316480	30640	30640
511705088	33536	33536
520093696	23776	23776
528482304	22096	22096
536870912	43824	43824
553648128	44096	44096
570425344	285520	285520
587202560	39648	39648
603979776	22960	22960
620756992	21936	21936
637534208	505344	505344
654311424	696816	696816
671088640	0	0
687865856	0	0
704643072	0	0
721420288	0	0
738197504	0	0
754974720	0	0
771751936	0	0
788529152	0	0
805306368	0	0
822083584	0	0
838860800	0	0
855638016	0	0
872415232	0	0
889192448	0	0
905969664	0	0
922746880	0	0
939524096	0	0
956301312	0	0
973078528	0	0
989855744	0	0
1006632960	0	0
1023410176	0	0
1040187392	0	0
1056964608	0	0
1073741824	0	0
1107296256	0	0
1140850688	0	0
1174405120	0	0
1207959552	0	0
1241513984	0	0
1275068416	0	0
1308622848	0	0
1342177280	0	0
1375731712	0	0
1409286144	0	0
1442840576	0	0
1476395008	0	0
1509949440	0	0
1543503872	0	0
1577058304	0	0
1610612736	0	0
1644167168	0	0
1677721600	0	0
1711276032	0	0
1744830464	0	0
1778384896	0	0
1811939328	0	0
1845493760	0	0
1879048192	0	0
1912602624	0	0
1946157056	0	0
1979711488	0	0
2013265920	0	0
2046820352	0	0
2080374784	0	0
2113929216	0	0
2147483648	0	0
2214592512	0	0
2281701376	0	0
2348810240	0	0
2415919104	0	0
2483027968	0	0
2550136832	0	0
2617245696	0	0
2684354560	0	0
2751463424	0	0
2818572288	0	0
2885681152	0	0
2952790016	0	0
3019898880	0	0
3087007744	0	0
3154116608	0	0
3221225472	0	0
3288334336	0	0
3355443200	0	0
3422552064	0	0
3489660928	0	0
3556769792	0	0
3623878656	0	0
3690987520	0	0
3758096384	0	0
3825205248	0	0
3892314112	0	0
3959422976	0	0
4026531840	0	0
4093640704	0	0
4160749568	0	0
4227858432	0	0
~~~~~~~~~~Reuse Distance Profiler output end~~~~~~~~~~

DRAM Statistics
 CHANNEL 0
 RQ ROW_BUFFER_HIT:      63451  ROW_BUFFER_MISS:   16575676
 DBUS AVG_CONGESTED_CYCLE:    3.98319
 WQ ROW_BUFFER_HIT:     402935  ROW_BUFFER_MISS:    6368664  FULL:          0


CPU 0 Branch Prediction Accuracy: 98.2245% MPKI: 0.239069 Average ROB Occupancy at Mispredict: 341.915
Branch type MPKI
BRANCH_DIRECT_JUMP: 1.66667e-05
BRANCH_INDIRECT: 1.33333e-06
BRANCH_CONDITIONAL: 0.238919
BRANCH_DIRECT_CALL: 6.66667e-05
BRANCH_INDIRECT_CALL: 0
BRANCH_RETURN: 6.46667e-05

