
*** ChampSim Multicore Out-of-Order Simulator ***

Warmup Instructions: 500000000
Simulation Instructions: 1500000000
Number of CPUs: 1
Off-chip DRAM Size: 4 GiB Channels: 1 Width: 64-bit Data Rate: 3200 MT/s

VirtualMemory physical capacity: 8588881920 num_ppages: 2096895
VirtualMemory page size: 4096 log2_page_size: 12

CPU 0 runs traces/459.GemsFDTD-1491B.champsimtrace.xz
CPU 0 Bimodal branch predictor
Basic BTB sets: 1024 ways: 8 indirect buffer size: 4096 RAS size: 64
Initializing LRU.
Initializing LRU.
Initializing LRU.
Initializing LRU.
Initializing rdLRU.
Initializing LRU.
Initializing LRU.
Heartbeat CPU 0 instructions: 10000001 cycles: 3102239 heartbeat IPC: 3.22348 cumulative IPC: 3.22348 (Simulation time: 0 hr 1 min 20 sec) 
Heartbeat CPU 0 instructions: 20000002 cycles: 6204363 heartbeat IPC: 3.2236 cumulative IPC: 3.22354 (Simulation time: 0 hr 2 min 3 sec) 
Heartbeat CPU 0 instructions: 30000004 cycles: 9306476 heartbeat IPC: 3.22361 cumulative IPC: 3.22356 (Simulation time: 0 hr 3 min 6 sec) 
Heartbeat CPU 0 instructions: 40000002 cycles: 12408592 heartbeat IPC: 3.22361 cumulative IPC: 3.22357 (Simulation time: 0 hr 4 min 8 sec) 
Heartbeat CPU 0 instructions: 50000001 cycles: 15510714 heartbeat IPC: 3.2236 cumulative IPC: 3.22358 (Simulation time: 0 hr 4 min 52 sec) 
Heartbeat CPU 0 instructions: 60000000 cycles: 18612826 heartbeat IPC: 3.22361 cumulative IPC: 3.22358 (Simulation time: 0 hr 5 min 45 sec) 
Heartbeat CPU 0 instructions: 70000004 cycles: 21714943 heartbeat IPC: 3.22361 cumulative IPC: 3.22359 (Simulation time: 0 hr 6 min 28 sec) 
Heartbeat CPU 0 instructions: 80000001 cycles: 24817070 heartbeat IPC: 3.22359 cumulative IPC: 3.22359 (Simulation time: 0 hr 7 min 12 sec) 
Heartbeat CPU 0 instructions: 90000000 cycles: 27919183 heartbeat IPC: 3.22361 cumulative IPC: 3.22359 (Simulation time: 0 hr 7 min 55 sec) 
Heartbeat CPU 0 instructions: 100000001 cycles: 31021299 heartbeat IPC: 3.22361 cumulative IPC: 3.22359 (Simulation time: 0 hr 8 min 38 sec) 
Heartbeat CPU 0 instructions: 110000000 cycles: 34123417 heartbeat IPC: 3.2236 cumulative IPC: 3.22359 (Simulation time: 0 hr 9 min 22 sec) 
Heartbeat CPU 0 instructions: 120000004 cycles: 37225536 heartbeat IPC: 3.2236 cumulative IPC: 3.22359 (Simulation time: 0 hr 10 min 7 sec) 
Heartbeat CPU 0 instructions: 130000003 cycles: 40327658 heartbeat IPC: 3.2236 cumulative IPC: 3.22359 (Simulation time: 0 hr 10 min 58 sec) 
Heartbeat CPU 0 instructions: 140000003 cycles: 43429774 heartbeat IPC: 3.22361 cumulative IPC: 3.22359 (Simulation time: 0 hr 11 min 42 sec) 
Heartbeat CPU 0 instructions: 150000000 cycles: 46531887 heartbeat IPC: 3.22361 cumulative IPC: 3.2236 (Simulation time: 0 hr 12 min 27 sec) 
Heartbeat CPU 0 instructions: 160000004 cycles: 49634015 heartbeat IPC: 3.22359 cumulative IPC: 3.2236 (Simulation time: 0 hr 13 min 10 sec) 
Heartbeat CPU 0 instructions: 170000003 cycles: 52736126 heartbeat IPC: 3.22361 cumulative IPC: 3.2236 (Simulation time: 0 hr 13 min 53 sec) 
Heartbeat CPU 0 instructions: 180000002 cycles: 55838248 heartbeat IPC: 3.2236 cumulative IPC: 3.2236 (Simulation time: 0 hr 14 min 37 sec) 
Heartbeat CPU 0 instructions: 190000004 cycles: 58940362 heartbeat IPC: 3.22361 cumulative IPC: 3.2236 (Simulation time: 0 hr 15 min 24 sec) 
Heartbeat CPU 0 instructions: 200000003 cycles: 62042479 heartbeat IPC: 3.2236 cumulative IPC: 3.2236 (Simulation time: 0 hr 16 min 10 sec) 
Heartbeat CPU 0 instructions: 210000001 cycles: 65144599 heartbeat IPC: 3.2236 cumulative IPC: 3.2236 (Simulation time: 0 hr 16 min 54 sec) 
Heartbeat CPU 0 instructions: 220000000 cycles: 68246717 heartbeat IPC: 3.2236 cumulative IPC: 3.2236 (Simulation time: 0 hr 17 min 48 sec) 
Heartbeat CPU 0 instructions: 230000004 cycles: 71348835 heartbeat IPC: 3.22361 cumulative IPC: 3.2236 (Simulation time: 0 hr 18 min 40 sec) 
Heartbeat CPU 0 instructions: 240000002 cycles: 74450954 heartbeat IPC: 3.2236 cumulative IPC: 3.2236 (Simulation time: 0 hr 19 min 32 sec) 
Heartbeat CPU 0 instructions: 250000002 cycles: 77553069 heartbeat IPC: 3.22361 cumulative IPC: 3.2236 (Simulation time: 0 hr 20 min 15 sec) 
Heartbeat CPU 0 instructions: 260000004 cycles: 80655191 heartbeat IPC: 3.2236 cumulative IPC: 3.2236 (Simulation time: 0 hr 21 min 0 sec) 
Heartbeat CPU 0 instructions: 270000002 cycles: 83757309 heartbeat IPC: 3.2236 cumulative IPC: 3.2236 (Simulation time: 0 hr 21 min 45 sec) 
Heartbeat CPU 0 instructions: 280000003 cycles: 86859422 heartbeat IPC: 3.22361 cumulative IPC: 3.2236 (Simulation time: 0 hr 22 min 29 sec) 
Heartbeat CPU 0 instructions: 290000003 cycles: 89961545 heartbeat IPC: 3.2236 cumulative IPC: 3.2236 (Simulation time: 0 hr 23 min 18 sec) 
Heartbeat CPU 0 instructions: 300000001 cycles: 93460532 heartbeat IPC: 2.85797 cumulative IPC: 3.20991 (Simulation time: 0 hr 24 min 15 sec) 
Heartbeat CPU 0 instructions: 310000001 cycles: 98912538 heartbeat IPC: 1.83419 cumulative IPC: 3.13408 (Simulation time: 0 hr 26 min 31 sec) 
Heartbeat CPU 0 instructions: 320000000 cycles: 104364531 heartbeat IPC: 1.83419 cumulative IPC: 3.06618 (Simulation time: 0 hr 28 min 37 sec) 
Heartbeat CPU 0 instructions: 330000002 cycles: 109816517 heartbeat IPC: 1.83419 cumulative IPC: 3.00501 (Simulation time: 0 hr 31 min 3 sec) 
Heartbeat CPU 0 instructions: 340000001 cycles: 115268525 heartbeat IPC: 1.83419 cumulative IPC: 2.94963 (Simulation time: 0 hr 33 min 8 sec) 
Heartbeat CPU 0 instructions: 350000001 cycles: 120720515 heartbeat IPC: 1.83419 cumulative IPC: 2.89926 (Simulation time: 0 hr 35 min 14 sec) 
Heartbeat CPU 0 instructions: 360000001 cycles: 126172521 heartbeat IPC: 1.83419 cumulative IPC: 2.85324 (Simulation time: 0 hr 37 min 18 sec) 
Heartbeat CPU 0 instructions: 370000002 cycles: 131624509 heartbeat IPC: 1.83419 cumulative IPC: 2.81103 (Simulation time: 0 hr 39 min 10 sec) 
Heartbeat CPU 0 instructions: 380000000 cycles: 137076502 heartbeat IPC: 1.83419 cumulative IPC: 2.77217 (Simulation time: 0 hr 41 min 23 sec) 
Heartbeat CPU 0 instructions: 390000001 cycles: 142528510 heartbeat IPC: 1.83419 cumulative IPC: 2.73629 (Simulation time: 0 hr 43 min 16 sec) 
Heartbeat CPU 0 instructions: 400000003 cycles: 147980495 heartbeat IPC: 1.83419 cumulative IPC: 2.70306 (Simulation time: 0 hr 45 min 8 sec) 
Heartbeat CPU 0 instructions: 410000001 cycles: 153432498 heartbeat IPC: 1.83419 cumulative IPC: 2.67218 (Simulation time: 0 hr 47 min 0 sec) 
Heartbeat CPU 0 instructions: 420000003 cycles: 158884495 heartbeat IPC: 1.83419 cumulative IPC: 2.64343 (Simulation time: 0 hr 48 min 46 sec) 
Heartbeat CPU 0 instructions: 430000004 cycles: 164439666 heartbeat IPC: 1.80012 cumulative IPC: 2.61494 (Simulation time: 0 hr 50 min 34 sec) 
Heartbeat CPU 0 instructions: 440000003 cycles: 170803148 heartbeat IPC: 1.57147 cumulative IPC: 2.57607 (Simulation time: 0 hr 52 min 46 sec) 
Heartbeat CPU 0 instructions: 450000004 cycles: 176268173 heartbeat IPC: 1.82982 cumulative IPC: 2.55293 (Simulation time: 0 hr 54 min 32 sec) 
Heartbeat CPU 0 instructions: 460000001 cycles: 181733198 heartbeat IPC: 1.82982 cumulative IPC: 2.53118 (Simulation time: 0 hr 56 min 18 sec) 
Heartbeat CPU 0 instructions: 470000001 cycles: 187198241 heartbeat IPC: 1.82981 cumulative IPC: 2.51071 (Simulation time: 0 hr 58 min 4 sec) 
Heartbeat CPU 0 instructions: 480000001 cycles: 192663265 heartbeat IPC: 1.82982 cumulative IPC: 2.49139 (Simulation time: 0 hr 59 min 50 sec) 
Heartbeat CPU 0 instructions: 490000001 cycles: 198128291 heartbeat IPC: 1.82982 cumulative IPC: 2.47315 (Simulation time: 1 hr 2 min 2 sec) 
Heartbeat CPU 0 instructions: 500000000 cycles: 203593331 heartbeat IPC: 1.82981 cumulative IPC: 2.45588 (Simulation time: 1 hr 3 min 56 sec) 

Warmup complete CPU 0 instructions: 500000003 cycles: 203593335 (Simulation time: 1 hr 3 min 56 sec) 

Heartbeat CPU 0 instructions: 510000000 cycles: 218467418 heartbeat IPC: 0.67231 cumulative IPC: 0.67231 (Simulation time: 1 hr 6 min 30 sec) 
Heartbeat CPU 0 instructions: 520000000 cycles: 233342878 heartbeat IPC: 0.672248 cumulative IPC: 0.672279 (Simulation time: 1 hr 9 min 5 sec) 
Heartbeat CPU 0 instructions: 530000002 cycles: 248213946 heartbeat IPC: 0.672447 cumulative IPC: 0.672335 (Simulation time: 1 hr 11 min 39 sec) 
Heartbeat CPU 0 instructions: 540000000 cycles: 263086082 heartbeat IPC: 0.672398 cumulative IPC: 0.672351 (Simulation time: 1 hr 15 min 1 sec) 
Heartbeat CPU 0 instructions: 550000000 cycles: 277962455 heartbeat IPC: 0.672207 cumulative IPC: 0.672322 (Simulation time: 1 hr 18 min 9 sec) 
Heartbeat CPU 0 instructions: 560000004 cycles: 292832680 heartbeat IPC: 0.672485 cumulative IPC: 0.672349 (Simulation time: 1 hr 21 min 24 sec) 
Heartbeat CPU 0 instructions: 570000004 cycles: 307702101 heartbeat IPC: 0.672521 cumulative IPC: 0.672374 (Simulation time: 1 hr 24 min 44 sec) 
Heartbeat CPU 0 instructions: 580000004 cycles: 322568339 heartbeat IPC: 0.672665 cumulative IPC: 0.67241 (Simulation time: 1 hr 27 min 23 sec) 
Heartbeat CPU 0 instructions: 590000003 cycles: 336192588 heartbeat IPC: 0.733985 cumulative IPC: 0.678737 (Simulation time: 1 hr 30 min 47 sec) 
Heartbeat CPU 0 instructions: 600000002 cycles: 349345014 heartbeat IPC: 0.760316 cumulative IPC: 0.686098 (Simulation time: 1 hr 33 min 21 sec) 
Heartbeat CPU 0 instructions: 610000000 cycles: 362480774 heartbeat IPC: 0.76128 cumulative IPC: 0.692314 (Simulation time: 1 hr 36 min 9 sec) 
Heartbeat CPU 0 instructions: 620000000 cycles: 375676800 heartbeat IPC: 0.757804 cumulative IPC: 0.697336 (Simulation time: 1 hr 38 min 49 sec) 
Heartbeat CPU 0 instructions: 630000001 cycles: 388843435 heartbeat IPC: 0.759496 cumulative IPC: 0.701754 (Simulation time: 1 hr 41 min 14 sec) 
Heartbeat CPU 0 instructions: 640000000 cycles: 401931760 heartbeat IPC: 0.76404 cumulative IPC: 0.705864 (Simulation time: 1 hr 43 min 39 sec) 
Heartbeat CPU 0 instructions: 650000003 cycles: 415160453 heartbeat IPC: 0.755933 cumulative IPC: 0.708995 (Simulation time: 1 hr 46 min 4 sec) 
Heartbeat CPU 0 instructions: 660000000 cycles: 428329128 heartbeat IPC: 0.759378 cumulative IPC: 0.711947 (Simulation time: 1 hr 48 min 30 sec) 
Heartbeat CPU 0 instructions: 670000004 cycles: 441416344 heartbeat IPC: 0.764105 cumulative IPC: 0.714817 (Simulation time: 1 hr 50 min 57 sec) 
Heartbeat CPU 0 instructions: 680000000 cycles: 454602325 heartbeat IPC: 0.758381 cumulative IPC: 0.717106 (Simulation time: 1 hr 53 min 23 sec) 
Heartbeat CPU 0 instructions: 690000001 cycles: 467787469 heartbeat IPC: 0.758429 cumulative IPC: 0.719168 (Simulation time: 1 hr 55 min 49 sec) 
Heartbeat CPU 0 instructions: 700000001 cycles: 479208562 heartbeat IPC: 0.875573 cumulative IPC: 0.725649 (Simulation time: 1 hr 57 min 56 sec) 
Heartbeat CPU 0 instructions: 710000002 cycles: 491636969 heartbeat IPC: 0.804608 cumulative IPC: 0.729056 (Simulation time: 2 hr 0 min 29 sec) 
Heartbeat CPU 0 instructions: 720000002 cycles: 504797158 heartbeat IPC: 0.759867 cumulative IPC: 0.730402 (Simulation time: 2 hr 2 min 53 sec) 
Heartbeat CPU 0 instructions: 730000002 cycles: 517962861 heartbeat IPC: 0.759549 cumulative IPC: 0.731623 (Simulation time: 2 hr 5 min 16 sec) 
Heartbeat CPU 0 instructions: 740000000 cycles: 531058441 heartbeat IPC: 0.763616 cumulative IPC: 0.732903 (Simulation time: 2 hr 7 min 38 sec) 
Heartbeat CPU 0 instructions: 750000002 cycles: 544177419 heartbeat IPC: 0.762255 cumulative IPC: 0.734033 (Simulation time: 2 hr 9 min 59 sec) 
Heartbeat CPU 0 instructions: 760000000 cycles: 557292064 heartbeat IPC: 0.762506 cumulative IPC: 0.735089 (Simulation time: 2 hr 12 min 22 sec) 
Heartbeat CPU 0 instructions: 770000002 cycles: 570455869 heartbeat IPC: 0.759659 cumulative IPC: 0.73597 (Simulation time: 2 hr 14 min 43 sec) 
Heartbeat CPU 0 instructions: 780000003 cycles: 583544892 heartbeat IPC: 0.763999 cumulative IPC: 0.736936 (Simulation time: 2 hr 17 min 4 sec) 
Heartbeat CPU 0 instructions: 790000003 cycles: 596704931 heartbeat IPC: 0.759876 cumulative IPC: 0.737704 (Simulation time: 2 hr 19 min 25 sec) 
Heartbeat CPU 0 instructions: 800000001 cycles: 609854170 heartbeat IPC: 0.7605 cumulative IPC: 0.738442 (Simulation time: 2 hr 21 min 46 sec) 
Heartbeat CPU 0 instructions: 810000003 cycles: 622930520 heartbeat IPC: 0.76474 cumulative IPC: 0.739262 (Simulation time: 2 hr 24 min 8 sec) 
Heartbeat CPU 0 instructions: 820000001 cycles: 636087393 heartbeat IPC: 0.760059 cumulative IPC: 0.739895 (Simulation time: 2 hr 26 min 28 sec) 
Heartbeat CPU 0 instructions: 830000000 cycles: 649875404 heartbeat IPC: 0.725268 cumulative IPC: 0.739443 (Simulation time: 2 hr 28 min 53 sec) 
Heartbeat CPU 0 instructions: 840000003 cycles: 663872316 heartbeat IPC: 0.714444 cumulative IPC: 0.738682 (Simulation time: 2 hr 31 min 19 sec) 
Heartbeat CPU 0 instructions: 850000003 cycles: 677922782 heartbeat IPC: 0.71172 cumulative IPC: 0.737884 (Simulation time: 2 hr 33 min 45 sec) 
Heartbeat CPU 0 instructions: 860000003 cycles: 691924508 heartbeat IPC: 0.714198 cumulative IPC: 0.737205 (Simulation time: 2 hr 36 min 11 sec) 
Heartbeat CPU 0 instructions: 870000002 cycles: 705857515 heartbeat IPC: 0.71772 cumulative IPC: 0.736664 (Simulation time: 2 hr 38 min 37 sec) 
Heartbeat CPU 0 instructions: 880000001 cycles: 719873485 heartbeat IPC: 0.713472 cumulative IPC: 0.736035 (Simulation time: 2 hr 41 min 4 sec) 
Heartbeat CPU 0 instructions: 890000001 cycles: 733871733 heartbeat IPC: 0.714375 cumulative IPC: 0.735463 (Simulation time: 2 hr 43 min 30 sec) 
Heartbeat CPU 0 instructions: 900000001 cycles: 747903359 heartbeat IPC: 0.712676 cumulative IPC: 0.734875 (Simulation time: 2 hr 45 min 56 sec) 
Heartbeat CPU 0 instructions: 910000000 cycles: 761947513 heartbeat IPC: 0.71204 cumulative IPC: 0.734301 (Simulation time: 2 hr 48 min 22 sec) 
Heartbeat CPU 0 instructions: 920000000 cycles: 775944496 heartbeat IPC: 0.71444 cumulative IPC: 0.733815 (Simulation time: 2 hr 50 min 48 sec) 
Heartbeat CPU 0 instructions: 930000004 cycles: 786986965 heartbeat IPC: 0.905595 cumulative IPC: 0.737067 (Simulation time: 2 hr 52 min 48 sec) 
Heartbeat CPU 0 instructions: 940000000 cycles: 800724725 heartbeat IPC: 0.72792 cumulative IPC: 0.736856 (Simulation time: 2 hr 55 min 12 sec) 
Heartbeat CPU 0 instructions: 950000001 cycles: 814696438 heartbeat IPC: 0.715732 cumulative IPC: 0.736373 (Simulation time: 2 hr 57 min 39 sec) 
Heartbeat CPU 0 instructions: 960000004 cycles: 828755821 heartbeat IPC: 0.711269 cumulative IPC: 0.735809 (Simulation time: 3 hr 0 min 6 sec) 
Heartbeat CPU 0 instructions: 970000003 cycles: 842825647 heartbeat IPC: 0.710741 cumulative IPC: 0.735257 (Simulation time: 3 hr 2 min 33 sec) 
Heartbeat CPU 0 instructions: 980000003 cycles: 856781522 heartbeat IPC: 0.716544 cumulative IPC: 0.734857 (Simulation time: 3 hr 5 min 0 sec) 
Heartbeat CPU 0 instructions: 990000002 cycles: 870842267 heartbeat IPC: 0.7112 cumulative IPC: 0.734359 (Simulation time: 3 hr 7 min 28 sec) 
Heartbeat CPU 0 instructions: 1000000002 cycles: 884930959 heartbeat IPC: 0.709789 cumulative IPC: 0.733851 (Simulation time: 3 hr 9 min 56 sec) 
Heartbeat CPU 0 instructions: 1010000003 cycles: 898981936 heartbeat IPC: 0.711694 cumulative IPC: 0.733403 (Simulation time: 3 hr 12 min 23 sec) 
Heartbeat CPU 0 instructions: 1020000003 cycles: 913022836 heartbeat IPC: 0.712205 cumulative IPC: 0.732983 (Simulation time: 3 hr 14 min 51 sec) 
Heartbeat CPU 0 instructions: 1030000000 cycles: 927093884 heartbeat IPC: 0.710679 cumulative IPC: 0.73255 (Simulation time: 3 hr 17 min 17 sec) 
Heartbeat CPU 0 instructions: 1040000002 cycles: 940821393 heartbeat IPC: 0.728464 cumulative IPC: 0.732473 (Simulation time: 3 hr 19 min 39 sec) 
Heartbeat CPU 0 instructions: 1050000004 cycles: 954389936 heartbeat IPC: 0.736999 cumulative IPC: 0.732555 (Simulation time: 3 hr 21 min 28 sec) 
Heartbeat CPU 0 instructions: 1060000001 cycles: 968365706 heartbeat IPC: 0.715524 cumulative IPC: 0.732244 (Simulation time: 3 hr 23 min 19 sec) 
Heartbeat CPU 0 instructions: 1070000002 cycles: 974064507 heartbeat IPC: 1.75476 cumulative IPC: 0.739807 (Simulation time: 3 hr 24 min 17 sec) 
Heartbeat CPU 0 instructions: 1080000003 cycles: 979535051 heartbeat IPC: 1.82797 cumulative IPC: 0.747479 (Simulation time: 3 hr 25 min 13 sec) 
Heartbeat CPU 0 instructions: 1090000004 cycles: 984276762 heartbeat IPC: 2.10894 cumulative IPC: 0.755748 (Simulation time: 3 hr 26 min 7 sec) 
Heartbeat CPU 0 instructions: 1100000004 cycles: 993161650 heartbeat IPC: 1.12551 cumulative IPC: 0.759909 (Simulation time: 3 hr 27 min 27 sec) 
Heartbeat CPU 0 instructions: 1110000004 cycles: 1003695982 heartbeat IPC: 0.949277 cumulative IPC: 0.762402 (Simulation time: 3 hr 29 min 26 sec) 
Heartbeat CPU 0 instructions: 1120000000 cycles: 1014092031 heartbeat IPC: 0.961904 cumulative IPC: 0.764961 (Simulation time: 3 hr 31 min 26 sec) 
Heartbeat CPU 0 instructions: 1130000003 cycles: 1023108202 heartbeat IPC: 1.10912 cumulative IPC: 0.768748 (Simulation time: 3 hr 33 min 14 sec) 
Heartbeat CPU 0 instructions: 1140000000 cycles: 1031484017 heartbeat IPC: 1.19391 cumulative IPC: 0.773049 (Simulation time: 3 hr 34 min 58 sec) 
Heartbeat CPU 0 instructions: 1150000000 cycles: 1039654297 heartbeat IPC: 1.22395 cumulative IPC: 0.777455 (Simulation time: 3 hr 36 min 41 sec) 
Heartbeat CPU 0 instructions: 1160000003 cycles: 1047464208 heartbeat IPC: 1.28042 cumulative IPC: 0.78211 (Simulation time: 3 hr 38 min 20 sec) 
Heartbeat CPU 0 instructions: 1170000000 cycles: 1055123136 heartbeat IPC: 1.30567 cumulative IPC: 0.786819 (Simulation time: 3 hr 40 min 0 sec) 
Heartbeat CPU 0 instructions: 1180000000 cycles: 1063320397 heartbeat IPC: 1.21992 cumulative IPC: 0.790949 (Simulation time: 3 hr 41 min 43 sec) 
Heartbeat CPU 0 instructions: 1190000004 cycles: 1073531216 heartbeat IPC: 0.979354 cumulative IPC: 0.79316 (Simulation time: 3 hr 43 min 40 sec) 
Heartbeat CPU 0 instructions: 1200000000 cycles: 1083862758 heartbeat IPC: 0.967909 cumulative IPC: 0.795211 (Simulation time: 3 hr 45 min 39 sec) 
Heartbeat CPU 0 instructions: 1210000004 cycles: 1092859542 heartbeat IPC: 1.11151 cumulative IPC: 0.798411 (Simulation time: 3 hr 47 min 26 sec) 
Heartbeat CPU 0 instructions: 1220000001 cycles: 1101256879 heartbeat IPC: 1.19085 cumulative IPC: 0.802082 (Simulation time: 3 hr 49 min 10 sec) 
Heartbeat CPU 0 instructions: 1230000001 cycles: 1109369769 heartbeat IPC: 1.23261 cumulative IPC: 0.805938 (Simulation time: 3 hr 50 min 52 sec) 
Heartbeat CPU 0 instructions: 1240000004 cycles: 1117165209 heartbeat IPC: 1.2828 cumulative IPC: 0.810007 (Simulation time: 3 hr 52 min 31 sec) 
Heartbeat CPU 0 instructions: 1250000002 cycles: 1124825449 heartbeat IPC: 1.30544 cumulative IPC: 0.814127 (Simulation time: 3 hr 54 min 9 sec) 
Heartbeat CPU 0 instructions: 1260000001 cycles: 1133254545 heartbeat IPC: 1.18637 cumulative IPC: 0.817502 (Simulation time: 3 hr 55 min 53 sec) 
Heartbeat CPU 0 instructions: 1270000003 cycles: 1143502096 heartbeat IPC: 0.975843 cumulative IPC: 0.819228 (Simulation time: 3 hr 57 min 51 sec) 
Heartbeat CPU 0 instructions: 1280000002 cycles: 1153840871 heartbeat IPC: 0.967232 cumulative IPC: 0.820839 (Simulation time: 3 hr 59 min 50 sec) 
Heartbeat CPU 0 instructions: 1290000003 cycles: 1162503326 heartbeat IPC: 1.15441 cumulative IPC: 0.823852 (Simulation time: 4 hr 1 min 36 sec) 
Heartbeat CPU 0 instructions: 1300000003 cycles: 1170801923 heartbeat IPC: 1.20502 cumulative IPC: 0.827123 (Simulation time: 4 hr 3 min 19 sec) 
Heartbeat CPU 0 instructions: 1310000003 cycles: 1178903617 heartbeat IPC: 1.23431 cumulative IPC: 0.830505 (Simulation time: 4 hr 5 min 0 sec) 
Heartbeat CPU 0 instructions: 1320000003 cycles: 1186664294 heartbeat IPC: 1.28855 cumulative IPC: 0.834121 (Simulation time: 4 hr 6 min 38 sec) 
Heartbeat CPU 0 instructions: 1330000004 cycles: 1194268654 heartbeat IPC: 1.31504 cumulative IPC: 0.837812 (Simulation time: 4 hr 8 min 17 sec) 
Heartbeat CPU 0 instructions: 1340000000 cycles: 1202873630 heartbeat IPC: 1.16212 cumulative IPC: 0.840605 (Simulation time: 4 hr 10 min 3 sec) 
Heartbeat CPU 0 instructions: 1350000000 cycles: 1213089261 heartbeat IPC: 0.978892 cumulative IPC: 0.842004 (Simulation time: 4 hr 12 min 0 sec) 
Heartbeat CPU 0 instructions: 1360000003 cycles: 1223435266 heartbeat IPC: 0.966557 cumulative IPC: 0.843268 (Simulation time: 4 hr 13 min 59 sec) 
Heartbeat CPU 0 instructions: 1370000000 cycles: 1232142771 heartbeat IPC: 1.14843 cumulative IPC: 0.845851 (Simulation time: 4 hr 15 min 45 sec) 
Heartbeat CPU 0 instructions: 1380000004 cycles: 1240522551 heartbeat IPC: 1.19335 cumulative IPC: 0.84866 (Simulation time: 4 hr 17 min 28 sec) 
Heartbeat CPU 0 instructions: 1390000003 cycles: 1248611539 heartbeat IPC: 1.23625 cumulative IPC: 0.85166 (Simulation time: 4 hr 19 min 10 sec) 
Heartbeat CPU 0 instructions: 1400000004 cycles: 1256493258 heartbeat IPC: 1.26876 cumulative IPC: 0.854782 (Simulation time: 4 hr 20 min 49 sec) 
Heartbeat CPU 0 instructions: 1410000003 cycles: 1263983627 heartbeat IPC: 1.33505 cumulative IPC: 0.858175 (Simulation time: 4 hr 22 min 28 sec) 
Heartbeat CPU 0 instructions: 1420000003 cycles: 1278892106 heartbeat IPC: 0.670759 cumulative IPC: 0.855576 (Simulation time: 4 hr 24 min 42 sec) 
Heartbeat CPU 0 instructions: 1430000002 cycles: 1303468072 heartbeat IPC: 0.406902 cumulative IPC: 0.845551 (Simulation time: 4 hr 27 min 45 sec) 
Heartbeat CPU 0 instructions: 1440000002 cycles: 1328218822 heartbeat IPC: 0.404028 cumulative IPC: 0.835834 (Simulation time: 4 hr 30 min 49 sec) 
Heartbeat CPU 0 instructions: 1450000000 cycles: 1352851527 heartbeat IPC: 0.405964 cumulative IPC: 0.82662 (Simulation time: 4 hr 33 min 53 sec) 
Heartbeat CPU 0 instructions: 1460000004 cycles: 1377516568 heartbeat IPC: 0.405432 cumulative IPC: 0.817771 (Simulation time: 4 hr 36 min 57 sec) 
Heartbeat CPU 0 instructions: 1470000004 cycles: 1402166269 heartbeat IPC: 0.405684 cumulative IPC: 0.809296 (Simulation time: 4 hr 40 min 1 sec) 
Heartbeat CPU 0 instructions: 1480000001 cycles: 1426851108 heartbeat IPC: 0.405107 cumulative IPC: 0.801139 (Simulation time: 4 hr 43 min 6 sec) 
Heartbeat CPU 0 instructions: 1490000000 cycles: 1451463154 heartbeat IPC: 0.406305 cumulative IPC: 0.793352 (Simulation time: 4 hr 46 min 9 sec) 
Heartbeat CPU 0 instructions: 1500000000 cycles: 1476131109 heartbeat IPC: 0.405384 cumulative IPC: 0.785831 (Simulation time: 4 hr 49 min 12 sec) 
Heartbeat CPU 0 instructions: 1510000000 cycles: 1500764613 heartbeat IPC: 0.405951 cumulative IPC: 0.778617 (Simulation time: 4 hr 52 min 15 sec) 
Heartbeat CPU 0 instructions: 1520000003 cycles: 1525409178 heartbeat IPC: 0.405769 cumulative IPC: 0.771666 (Simulation time: 4 hr 55 min 18 sec) 
Heartbeat CPU 0 instructions: 1530000000 cycles: 1550051529 heartbeat IPC: 0.405805 cumulative IPC: 0.76497 (Simulation time: 4 hr 58 min 21 sec) 
Heartbeat CPU 0 instructions: 1540000002 cycles: 1574717016 heartbeat IPC: 0.405425 cumulative IPC: 0.758502 (Simulation time: 5 hr 1 min 24 sec) 
Heartbeat CPU 0 instructions: 1550000001 cycles: 1599355465 heartbeat IPC: 0.40587 cumulative IPC: 0.752277 (Simulation time: 5 hr 4 min 27 sec) 
Heartbeat CPU 0 instructions: 1560000004 cycles: 1624009691 heartbeat IPC: 0.40561 cumulative IPC: 0.74626 (Simulation time: 5 hr 7 min 31 sec) 
Heartbeat CPU 0 instructions: 1570000003 cycles: 1648646417 heartbeat IPC: 0.405898 cumulative IPC: 0.740457 (Simulation time: 5 hr 10 min 34 sec) 
Heartbeat CPU 0 instructions: 1580000004 cycles: 1673326467 heartbeat IPC: 0.405186 cumulative IPC: 0.734827 (Simulation time: 5 hr 13 min 37 sec) 
Heartbeat CPU 0 instructions: 1590000001 cycles: 1698005577 heartbeat IPC: 0.405201 cumulative IPC: 0.729384 (Simulation time: 5 hr 16 min 40 sec) 
Heartbeat CPU 0 instructions: 1600000003 cycles: 1722635974 heartbeat IPC: 0.406002 cumulative IPC: 0.72414 (Simulation time: 5 hr 19 min 43 sec) 
Heartbeat CPU 0 instructions: 1610000000 cycles: 1747373429 heartbeat IPC: 0.404245 cumulative IPC: 0.719014 (Simulation time: 5 hr 22 min 47 sec) 
Heartbeat CPU 0 instructions: 1620000002 cycles: 1771922806 heartbeat IPC: 0.407342 cumulative IPC: 0.714136 (Simulation time: 5 hr 25 min 49 sec) 
Heartbeat CPU 0 instructions: 1630000002 cycles: 1796639045 heartbeat IPC: 0.404592 cumulative IPC: 0.709333 (Simulation time: 5 hr 28 min 52 sec) 
Heartbeat CPU 0 instructions: 1640000001 cycles: 1821339854 heartbeat IPC: 0.404845 cumulative IPC: 0.704684 (Simulation time: 5 hr 31 min 56 sec) 
Heartbeat CPU 0 instructions: 1650000004 cycles: 1845975909 heartbeat IPC: 0.405909 cumulative IPC: 0.700202 (Simulation time: 5 hr 35 min 0 sec) 
Heartbeat CPU 0 instructions: 1660000001 cycles: 1870495902 heartbeat IPC: 0.40783 cumulative IPC: 0.695902 (Simulation time: 5 hr 38 min 2 sec) 
Heartbeat CPU 0 instructions: 1670000004 cycles: 1895140045 heartbeat IPC: 0.405776 cumulative IPC: 0.691675 (Simulation time: 5 hr 41 min 5 sec) 
Heartbeat CPU 0 instructions: 1680000004 cycles: 1919711969 heartbeat IPC: 0.406969 cumulative IPC: 0.687598 (Simulation time: 5 hr 44 min 7 sec) 
Heartbeat CPU 0 instructions: 1690000000 cycles: 1944449846 heartbeat IPC: 0.404238 cumulative IPC: 0.683572 (Simulation time: 5 hr 47 min 10 sec) 
Heartbeat CPU 0 instructions: 1700000003 cycles: 1969083545 heartbeat IPC: 0.405948 cumulative IPC: 0.679698 (Simulation time: 5 hr 50 min 14 sec) 
Heartbeat CPU 0 instructions: 1710000004 cycles: 1993716316 heartbeat IPC: 0.405963 cumulative IPC: 0.675931 (Simulation time: 5 hr 53 min 17 sec) 
Heartbeat CPU 0 instructions: 1720000002 cycles: 2018392433 heartbeat IPC: 0.40525 cumulative IPC: 0.672251 (Simulation time: 5 hr 56 min 20 sec) 
Heartbeat CPU 0 instructions: 1730000000 cycles: 2043032366 heartbeat IPC: 0.405845 cumulative IPC: 0.668682 (Simulation time: 5 hr 59 min 23 sec) 
Heartbeat CPU 0 instructions: 1740000004 cycles: 2067767939 heartbeat IPC: 0.404276 cumulative IPC: 0.665174 (Simulation time: 6 hr 2 min 26 sec) 
Heartbeat CPU 0 instructions: 1750000003 cycles: 2092408366 heartbeat IPC: 0.405837 cumulative IPC: 0.661791 (Simulation time: 6 hr 5 min 29 sec) 
Heartbeat CPU 0 instructions: 1760000002 cycles: 2117100150 heartbeat IPC: 0.404993 cumulative IPC: 0.658477 (Simulation time: 6 hr 8 min 32 sec) 
Heartbeat CPU 0 instructions: 1770000001 cycles: 2141807320 heartbeat IPC: 0.404741 cumulative IPC: 0.655242 (Simulation time: 6 hr 11 min 35 sec) 
Heartbeat CPU 0 instructions: 1780000003 cycles: 2166550043 heartbeat IPC: 0.404159 cumulative IPC: 0.652078 (Simulation time: 6 hr 14 min 39 sec) 
Heartbeat CPU 0 instructions: 1790000004 cycles: 2191165243 heartbeat IPC: 0.406253 cumulative IPC: 0.649033 (Simulation time: 6 hr 17 min 42 sec) 
Heartbeat CPU 0 instructions: 1800000004 cycles: 2215890211 heartbeat IPC: 0.404449 cumulative IPC: 0.646028 (Simulation time: 6 hr 20 min 46 sec) 
Heartbeat CPU 0 instructions: 1810000002 cycles: 2240528422 heartbeat IPC: 0.405874 cumulative IPC: 0.643123 (Simulation time: 6 hr 23 min 49 sec) 
Heartbeat CPU 0 instructions: 1820000001 cycles: 2265244288 heartbeat IPC: 0.404598 cumulative IPC: 0.640264 (Simulation time: 6 hr 26 min 53 sec) 
Heartbeat CPU 0 instructions: 1830000001 cycles: 2285058409 heartbeat IPC: 0.504691 cumulative IPC: 0.638973 (Simulation time: 6 hr 29 min 40 sec) 
Heartbeat CPU 0 instructions: 1840000001 cycles: 2299899464 heartbeat IPC: 0.673807 cumulative IPC: 0.63922 (Simulation time: 6 hr 32 min 10 sec) 
Heartbeat CPU 0 instructions: 1850000001 cycles: 2314739899 heartbeat IPC: 0.673835 cumulative IPC: 0.639463 (Simulation time: 6 hr 34 min 40 sec) 
Heartbeat CPU 0 instructions: 1860000000 cycles: 2329578377 heartbeat IPC: 0.673923 cumulative IPC: 0.639703 (Simulation time: 6 hr 37 min 11 sec) 
Heartbeat CPU 0 instructions: 1870000002 cycles: 2344417198 heartbeat IPC: 0.673908 cumulative IPC: 0.639941 (Simulation time: 6 hr 39 min 40 sec) 
Heartbeat CPU 0 instructions: 1880000001 cycles: 2359264977 heartbeat IPC: 0.673501 cumulative IPC: 0.640172 (Simulation time: 6 hr 42 min 10 sec) 
Heartbeat CPU 0 instructions: 1890000002 cycles: 2374105318 heartbeat IPC: 0.673839 cumulative IPC: 0.640402 (Simulation time: 6 hr 44 min 41 sec) 
Heartbeat CPU 0 instructions: 1900000004 cycles: 2388941605 heartbeat IPC: 0.674023 cumulative IPC: 0.64063 (Simulation time: 6 hr 47 min 11 sec) 
Heartbeat CPU 0 instructions: 1910000000 cycles: 2403774444 heartbeat IPC: 0.674179 cumulative IPC: 0.640856 (Simulation time: 6 hr 49 min 40 sec) 
Heartbeat CPU 0 instructions: 1920000003 cycles: 2418614049 heartbeat IPC: 0.673873 cumulative IPC: 0.641078 (Simulation time: 6 hr 52 min 9 sec) 
Heartbeat CPU 0 instructions: 1930000004 cycles: 2433457314 heartbeat IPC: 0.673706 cumulative IPC: 0.641295 (Simulation time: 6 hr 54 min 39 sec) 
Heartbeat CPU 0 instructions: 1940000001 cycles: 2448292811 heartbeat IPC: 0.674059 cumulative IPC: 0.641511 (Simulation time: 6 hr 57 min 9 sec) 
Heartbeat CPU 0 instructions: 1950000004 cycles: 2463129586 heartbeat IPC: 0.674001 cumulative IPC: 0.641725 (Simulation time: 6 hr 59 min 40 sec) 
Heartbeat CPU 0 instructions: 1960000002 cycles: 2477972363 heartbeat IPC: 0.673728 cumulative IPC: 0.641933 (Simulation time: 7 hr 2 min 10 sec) 
Heartbeat CPU 0 instructions: 1970000001 cycles: 2496966857 heartbeat IPC: 0.526468 cumulative IPC: 0.640977 (Simulation time: 7 hr 5 min 5 sec) 
Heartbeat CPU 0 instructions: 1980000001 cycles: 2516817039 heartbeat IPC: 0.503774 cumulative IPC: 0.6398 (Simulation time: 7 hr 8 min 6 sec) 
Heartbeat CPU 0 instructions: 1990000000 cycles: 2531216958 heartbeat IPC: 0.694448 cumulative IPC: 0.640138 (Simulation time: 7 hr 10 min 34 sec) 
*** Reached end of trace: traces/459.GemsFDTD-1491B.champsimtrace.xz
Heartbeat CPU 0 instructions: 2000000003 cycles: 2545618932 heartbeat IPC: 0.694349 cumulative IPC: 0.640471 (Simulation time: 7 hr 13 min 3 sec) 
Finished CPU 0 instructions: 1500000000 cycles: 2342025597 cumulative IPC: 0.640471 (Simulation time: 7 hr 13 min 3 sec) 

ChampSim completed all CPUs

Region of Interest Statistics

CPU 0 cumulative IPC: 0.640471 instructions: 1500000000 cycles: 2342025597
cpu0_DTLB TOTAL     ACCESS:  577518531  HIT:  570602548  MISS:    6915983
cpu0_DTLB LOAD      ACCESS:  517281677  HIT:  511093736  MISS:    6187941
cpu0_DTLB RFO       ACCESS:   60236854  HIT:   59508812  MISS:     728042
cpu0_DTLB PREFETCH  ACCESS:          0  HIT:          0  MISS:          0
cpu0_DTLB WRITEBACK ACCESS:          0  HIT:          0  MISS:          0
cpu0_DTLB TRANSLATION ACCESS:          0  HIT:          0  MISS:          0
cpu0_DTLB PREFETCH  REQUESTED:          0  ISSUED:          0  USEFUL:          0  USELESS:          0
cpu0_DTLB AVERAGE MISS LATENCY: 13.8301 cycles
cpu0_ITLB TOTAL     ACCESS:   23172767  HIT:   23172736  MISS:         31
cpu0_ITLB LOAD      ACCESS:   23172767  HIT:   23172736  MISS:         31
cpu0_ITLB RFO       ACCESS:          0  HIT:          0  MISS:          0
cpu0_ITLB PREFETCH  ACCESS:          0  HIT:          0  MISS:          0
cpu0_ITLB WRITEBACK ACCESS:          0  HIT:          0  MISS:          0
cpu0_ITLB TRANSLATION ACCESS:          0  HIT:          0  MISS:          0
cpu0_ITLB PREFETCH  REQUESTED:          0  ISSUED:          0  USEFUL:          0  USELESS:          0
cpu0_ITLB AVERAGE MISS LATENCY: 281.129 cycles
cpu0_L1I TOTAL     ACCESS:  113534331  HIT:  113533324  MISS:       1007
cpu0_L1I LOAD      ACCESS:  113534331  HIT:  113533324  MISS:       1007
cpu0_L1I RFO       ACCESS:          0  HIT:          0  MISS:          0
cpu0_L1I PREFETCH  ACCESS:          0  HIT:          0  MISS:          0
cpu0_L1I WRITEBACK ACCESS:          0  HIT:          0  MISS:          0
cpu0_L1I TRANSLATION ACCESS:          0  HIT:          0  MISS:          0
cpu0_L1I PREFETCH  REQUESTED:          0  ISSUED:          0  USEFUL:          0  USELESS:          0
cpu0_L1I AVERAGE MISS LATENCY: 367.549 cycles
cpu0_STLB TOTAL     ACCESS:    6916014  HIT:    5916017  MISS:     999997
cpu0_STLB LOAD      ACCESS:    6187972  HIT:    5190550  MISS:     997422
cpu0_STLB RFO       ACCESS:     728042  HIT:     725467  MISS:       2575
cpu0_STLB PREFETCH  ACCESS:          0  HIT:          0  MISS:          0
cpu0_STLB WRITEBACK ACCESS:          0  HIT:          0  MISS:          0
cpu0_STLB TRANSLATION ACCESS:          0  HIT:          0  MISS:          0
cpu0_STLB PREFETCH  REQUESTED:          0  ISSUED:          0  USEFUL:          0  USELESS:          0
cpu0_STLB AVERAGE MISS LATENCY: 33.3602 cycles
cpu0_L1D TOTAL     ACCESS:  638455529  HIT:  611213422  MISS:   27242107
cpu0_L1D LOAD      ACCESS:  546866272  HIT:  519867109  MISS:   26999163
cpu0_L1D RFO       ACCESS:   90630711  HIT:   90455053  MISS:     175658
cpu0_L1D PREFETCH  ACCESS:          0  HIT:          0  MISS:          0
cpu0_L1D WRITEBACK ACCESS:          0  HIT:          0  MISS:          0
cpu0_L1D TRANSLATION ACCESS:     958546  HIT:     891260  MISS:      67286
cpu0_L1D PREFETCH  REQUESTED:          0  ISSUED:          0  USEFUL:          0  USELESS:          0
cpu0_L1D AVERAGE MISS LATENCY: 296.534 cycles
cpu0_L2C TOTAL     ACCESS:   35798150  HIT:   18699024  MISS:   17099126
cpu0_L2C LOAD      ACCESS:   27000170  HIT:   10041960  MISS:   16958210
cpu0_L2C RFO       ACCESS:     175658  HIT:      36928  MISS:     138730
cpu0_L2C PREFETCH  ACCESS:          0  HIT:          0  MISS:          0
cpu0_L2C WRITEBACK ACCESS:    8555036  HIT:    8554461  MISS:        575
cpu0_L2C TRANSLATION ACCESS:      67286  HIT:      65675  MISS:       1611
cpu0_L2C PREFETCH  REQUESTED:          0  ISSUED:          0  USEFUL:          0  USELESS:          0
cpu0_L2C AVERAGE MISS LATENCY: 454.887 cycles
LLC TOTAL     ACCESS:   23935568  HIT:    7322788  MISS:   16612780
LLC LOAD      ACCESS:   16958200  HIT:     398654  MISS:   16559546
LLC RFO       ACCESS:     138730  HIT:      91594  MISS:      47136
LLC PREFETCH  ACCESS:          0  HIT:          0  MISS:          0
LLC WRITEBACK ACCESS:    6837027  HIT:    6831854  MISS:       5173
LLC TRANSLATION ACCESS:       1611  HIT:        686  MISS:        925
LLC PREFETCH  REQUESTED:          0  ISSUED:          0  USEFUL:          0  USELESS:          0
LLC AVERAGE MISS LATENCY: 446.59 cycles
~~~~~~~~~~Reuse Distance Profiler output~~~~~~~~~~
0	37016416	7535168
1	14421312	9768912
2	17597648	13384368
3	19891520	16727312
4	20803872	17999872
5	29173536	22006128
6	43450704	31998544
7	38379824	28575360
8	37917824	28442064
9	25333200	22023776
10	22513920	20379488
11	20625488	18905808
12	18828944	17468496
13	19534432	18206464
14	20930192	20231056
15	25224656	24127808
16	14716464	14120944
17	13977360	13449728
18	11225360	10531792
19	9784368	9210432
20	8719696	8225392
21	7410784	6909600
22	6569312	6131248
23	7186576	6316800
24	6191248	5452864
25	5538256	4998992
26	5424048	5031216
27	5062016	4649744
28	5479472	5061680
29	5507904	5114624
30	5606704	5265232
31	5361024	4952976
32	4777984	4371280
33	4606800	4149936
34	4246528	3822896
35	3956176	3532720
36	3280304	2841520
37	3095792	2648864
38	3086736	2669728
39	2912384	2493536
40	2914800	2450240
41	2766432	2374128
42	2885488	2519888
43	2819616	2445568
44	2714512	2248736
45	2773200	2347568
46	2548320	2209072
47	2243952	1916448
48	2209056	1876784
49	2232192	1931072
50	2234544	1931392
51	2204144	1860976
52	2186656	1844064
53	2149456	1869776
54	2273152	2009664
55	2179824	1921792
56	2285168	2008752
57	2325168	2079696
58	2393824	2171584
59	2380624	2175232
60	2129792	1935392
61	2130848	1955888
62	2218816	2078272
63	2257424	2078944
64	4481136	4128560
66	4417328	4140592
68	4570160	4311280
70	4841504	4576400
72	4717360	4469360
74	4505584	4251008
76	4644864	4350272
78	4529504	4285440
80	4789248	4535664
82	4715536	4437200
84	4811184	4574176
86	4882096	4613008
88	4880064	4597968
90	5368464	5115728
92	5615216	5346320
94	5775824	5426784
96	6211856	5740528
98	6762000	6112640
100	7258848	6529424
102	7432064	6600416
104	8040992	7103760
106	8432864	7536080
108	8392336	7617456
110	6660128	5983120
112	5947296	5290208
114	4823408	4287568
116	4059872	3660432
118	3370608	3049680
120	3121872	2869344
122	2264224	2074784
124	1576672	1405504
126	1357376	1229264
128	2255520	2013536
132	1953184	1776560
136	1564464	1440288
140	1514816	1416768
144	1493024	1409920
148	1506976	1463920
152	1499488	1460272
156	1386592	1357280
160	1229616	1205360
164	1020384	996160
168	898624	883088
172	842896	805936
176	802288	751424
180	740176	709728
184	653232	622976
188	660544	652832
192	599760	596896
196	583072	582768
200	547936	547872
204	501840	501824
208	474528	474512
212	448784	448784
216	382576	382544
220	351952	351952
224	299280	297488
228	290368	277152
232	249120	233296
236	208400	197744
240	173008	163392
244	128288	126688
248	96624	95808
252	68576	68576
256	108640	108624
264	90976	90976
272	57696	57696
280	35120	35120
288	22768	22768
296	7056	7056
304	4224	4224
312	2400	2400
320	576	576
328	1184	1184
336	4592	4592
344	4000	4000
352	3008	3008
360	1584	1584
368	560	560
376	512	512
384	640	640
392	736	736
400	752	752
408	816	816
416	1536	1536
424	3040	3040
432	3968	3968
440	10448	10448
448	13680	13664
456	19680	19680
464	29536	29536
472	42400	42400
480	41424	41424
488	40080	40080
496	30448	30448
504	18880	18880
512	30352	30352
528	43104	43104
544	58304	58304
560	68096	68096
576	82080	82080
592	76608	76608
608	49824	49824
624	18880	18880
640	13296	13296
656	16944	16944
672	35824	35824
688	52736	52736
704	58832	58832
720	34544	34544
736	24448	24448
752	16384	16384
768	16944	16944
784	39312	39312
800	68496	68496
816	59232	59232
832	66496	66496
848	76096	76096
864	35872	35872
880	39456	39456
896	26784	26784
912	14896	14896
928	17600	17600
944	16608	16608
960	8736	8736
976	12784	12784
992	25680	25680
1008	38320	38320
1024	71664	71664
1056	110944	110944
1088	75024	75024
1120	90304	90304
1152	72304	72304
1184	59088	59088
1216	140192	140192
1248	304160	304160
1280	292160	292016
1312	221968	221968
1344	185504	185456
1376	357696	357696
1408	408640	408576
1440	14832	14704
1472	896	896
1504	224	224
1536	16	16
1568	112	112
1600	640	640
1632	1664	1664
1664	4528	4528
1696	27536	27536
1728	90496	90496
1760	218240	218240
1792	401712	401712
1824	380576	380576
1856	255392	255392
1888	270128	270128
1920	307760	307760
1952	236832	236832
1984	156976	156976
2016	101888	101888
2048	116400	116400
2112	20288	20288
2176	1616	1616
2240	0	0
2304	0	0
2368	0	0
2432	0	0
2496	0	0
2560	0	0
2624	0	0
2688	0	0
2752	0	0
2816	0	0
2880	0	0
2944	0	0
3008	0	0
3072	0	0
3136	0	0
3200	1715728	1715728
3264	67248	67248
3328	209760	209760
3392	0	0
3456	0	0
3520	0	0
3584	0	0
3648	0	0
3712	0	0
3776	0	0
3840	0	0
3904	0	0
3968	0	0
4032	0	0
4096	0	0
4224	0	0
4352	0	0
4480	3040	3040
4608	3024	3024
4736	800	800
4864	0	0
4992	0	0
5120	32	16
5248	32	32
5376	16	0
5504	64	64
5632	16	0
5760	0	0
5888	0	0
6016	176	176
6144	1088	1088
6272	5040	5008
6400	20384	20368
6528	32224	32208
6656	28480	28480
6784	11904	11888
6912	2768	2768
7040	624	608
7168	208	192
7296	0	0
7424	0	0
7552	0	0
7680	16	16
7808	32	16
7936	1472	1472
8064	8608	8608
8192	36256	36224
8448	12032	12032
8704	32	0
8960	32	16
9216	16	0
9472	32	16
9728	12928	12896
9984	40224	40208
10240	16192	16192
10496	64	16
10752	16	0
11008	0	0
11264	48	16
11520	16	0
11776	0	0
12032	32	16
12288	32	16
12544	32	0
12800	16	16
13056	16	0
13312	16	0
13568	48	0
13824	16	0
14080	32	0
14336	32	16
14592	16208	16192
14848	5664	5664
15104	44848	44816
15360	304	272
15616	0	0
15872	16	0
16128	32	16
16384	96	32
16896	0	0
17408	0	0
17920	32	16
18432	48	16
18944	48	16
19456	32	0
19968	16	0
20480	32	0
20992	64	16
21504	64	16
22016	521920	521856
22528	963408	963360
23040	212048	211920
23552	29712	29680
24064	704	672
24576	128	64
25088	144	96
25600	16	0
26112	32	0
26624	16	0
27136	64	0
27648	48	16
28160	32	0
28672	48	0
29184	16	16
29696	12576	12448
30208	900768	900624
30720	1244432	1244240
31232	760672	760240
31744	2049088	2048688
32256	1439760	1439200
32768	7920	7104
33792	1008	64
34816	1312	128
35840	1056	112
36864	1008	64
37888	1120	48
38912	1008	48
39936	1040	96
40960	1070528	1069296
41984	1742768	1741808
43008	1216	128
44032	1200	80
45056	1216	48
46080	1136	112
47104	944	80
48128	928	80
49152	864	16
50176	1152	192
51200	1232	288
52224	1296	176
53248	1280	176
54272	1136	144
55296	1072	160
56320	1312	176
57344	1280	176
58368	1120	176
59392	1072	176
60416	1440	64
61440	976	80
62464	1168	112
63488	992	80
64512	976	128
65536	2368	160
67584	2496	384
69632	2720	880
71680	2416	304
73728	2032	112
75776	1536	144
77824	960	112
79872	944	144
81920	1440	480
83968	1232	560
86016	992	320
88064	704	128
90112	736	224
92160	1440	944
94208	1328	256
96256	1280	352
98304	1072	352
100352	912	304
102400	832	192
104448	704	192
106496	912	272
108544	816	352
110592	640	208
112640	528	304
114688	416	256
116736	848	736
118784	480	256
120832	656	384
122880	640	320
124928	672	352
126976	704	384
129024	640	400
131072	1072	656
135168	1056	576
139264	1888	1232
143360	1296	1024
147456	848	320
151552	1056	256
155648	1008	352
159744	736	288
163840	1536	976
167936	1808	1120
172032	1504	464
176128	976	640
180224	992	752
184320	1536	1264
188416	896	544
192512	1056	816
196608	1872	800
200704	1408	784
204800	912	624
208896	1344	784
212992	752	352
217088	1040	624
221184	1360	752
225280	1440	736
229376	21120	20544
233472	44256	43280
237568	784	368
241664	816	560
245760	1136	800
249856	4144	3744
253952	144400	143904
258048	1888	1120
262144	2368	1088
270336	83600	82752
278528	3520	2080
286720	28224	27648
294912	250240	249632
303104	6464	4896
311296	32048	31248
319488	182896	182352
327680	404144	402464
335872	2000	928
344064	1360	768
352256	2064	1088
360448	1488	928
368640	1376	656
376832	1680	768
385024	1552	992
393216	2512	1424
401408	1147152	1146256
409600	1227904	1227376
417792	2576	1664
425984	1712	1200
434176	2496	1392
442368	2544	1056
450560	2480	784
458752	2352	1504
466944	2432	1072
475136	1744	736
483328	1728	736
491520	2784	1328
499712	2336	1072
507904	2224	1472
516096	2336	1104
524288	3280	1840
540672	3136	1632
557056	3520	1984
573440	4016	1696
589824	4128	2416
606208	3856	2256
622592	4400	2496
638976	3760	2128
655360	4272	2416
671744	4256	2176
688128	1823952	1822208
704512	3680	1968
720896	3936	2320
737280	3952	2096
753664	4864	2656
770048	4256	1904
786432	4192	2384
802816	3952	2128
819200	4144	2048
835584	4624	2432
851968	4032	2176
868352	3712	1936
884736	3488	1792
901120	1344	448
917504	928	80
933888	944	32
950272	448	32
966656	352	64
983040	112	32
999424	48	48
1015808	16	0
1032192	32	32
1048576	80	64
1081344	144	144
1114112	16	16
1146880	0	0
1179648	16	16
1212416	48	48
1245184	48	48
1277952	0	0
1310720	32	32
1343488	32	32
1376256	3056	3056
1409024	8240	8240
1441792	224	224
1474560	144	144
1507328	48	48
1540096	16	16
1572864	80	80
1605632	112	112
1638400	64	64
1671168	64	64
1703936	96	96
1736704	80	80
1769472	80	80
1802240	32	32
1835008	112	112
1867776	112	112
1900544	112	112
1933312	288	288
1966080	160	160
1998848	16	16
2031616	0	0
2064384	96	96
2097152	176	176
2162688	112	112
2228224	96	96
2293760	128	128
2359296	192	192
2424832	384	384
2490368	608	608
2555904	304	304
2621440	272	272
2686976	240	240
2752512	416	416
2818048	720	720
2883584	400	400
2949120	400	400
3014656	448	448
3080192	736	736
3145728	496	496
3211264	416	416
3276800	336	336
3342336	288	288
3407872	352	352
3473408	512	512
3538944	336	336
3604480	528	528
3670016	448	448
3735552	304	304
3801088	448	448
3866624	368	368
3932160	384	384
3997696	496	496
4063232	320	320
4128768	224	224
4194304	1488	1488
4325376	1120	1120
4456448	752	752
4587520	1936	1936
4718592	2000	2000
4849664	185520	185520
4980736	56992	56992
5111808	3328	3328
5242880	6768	6768
5373952	4528	4528
5505024	5936	5936
5636096	2752	2752
5767168	1584	1584
5898240	1504	1504
6029312	1296	1296
6160384	1632	1632
6291456	1328	1328
6422528	1328	1328
6553600	1376	1376
6684672	1232	1232
6815744	1744	1744
6946816	6544	6544
7077888	1824	1824
7208960	3792	3792
7340032	4800	4800
7471104	2768	2768
7602176	1792	1792
7733248	1808	1808
7864320	1840	1840
7995392	2112	2112
8126464	2176	2176
8257536	1728	1728
8388608	4080	4080
8650752	4224	4224
8912896	4048	4048
9175040	3920	3920
9437184	3824	3824
9699328	4176	4176
9961472	5248	5248
10223616	4752	4752
10485760	4400	4400
10747904	4384	4384
11010048	4864	4864
11272192	4928	4928
11534336	5168	5168
11796480	5040	5040
12058624	5296	5296
12320768	4352	4352
12582912	4720	4720
12845056	4496	4496
13107200	4832	4832
13369344	4000	4000
13631488	4240	4240
13893632	4256	4256
14155776	4128	4128
14417920	4528	4528
14680064	4464	4464
14942208	4480	4480
15204352	5344	5344
15466496	4672	4672
15728640	4432	4432
15990784	3648	3648
16252928	3904	3904
16515072	4784	4784
16777216	10304	10304
17301504	9248	9248
17825792	8864	8864
18350080	10416	10416
18874368	9328	9328
19398656	9888	9888
19922944	8896	8896
20447232	8832	8832
20971520	8352	8352
21495808	7840	7840
22020096	6976	6976
22544384	7424	7424
23068672	6480	6480
23592960	6848	6848
24117248	7232	7232
24641536	6512	6512
25165824	6800	6800
25690112	7536	7536
26214400	6672	6672
26738688	7280	7280
27262976	6576	6576
27787264	6432	6432
28311552	6720	6720
28835840	7136	7136
29360128	7200	7200
29884416	6288	6288
30408704	6512	6512
30932992	6976	6976
31457280	7008	7008
31981568	7248	7248
32505856	7472	7472
33030144	6704	6704
33554432	13280	13280
34603008	13648	13648
35651584	14848	14848
36700160	15296	15296
37748736	1006704	1006704
38797312	15456	15456
39845888	16608	16608
40894464	16448	16448
41943040	17472	17472
42991616	16688	16688
44040192	17536	17536
45088768	17120	17120
46137344	17984	17984
47185920	16704	16704
48234496	16464	16464
49283072	16704	16704
50331648	16944	16944
51380224	17152	17152
52428800	17488	17488
53477376	18720	18720
54525952	20016	20016
55574528	21344	21344
56623104	19872	19872
57671680	16176	16176
58720256	16784	16784
59768832	17392	17392
60817408	18192	18192
61865984	18000	18000
62914560	17920	17920
63963136	19104	19104
65011712	17648	17648
66060288	18656	18656
67108864	30576	30576
69206016	30400	30400
71303168	30352	30352
73400320	46496	46496
75497472	86112	86096
77594624	130112	130112
79691776	76816	76816
81788928	47440	47440
83886080	45616	45616
85983232	45520	45520
88080384	44768	44768
90177536	16816	16816
92274688	15664	15664
94371840	15600	15600
96468992	14976	14976
98566144	13696	13696
100663296	12896	12896
102760448	13824	13824
104857600	13792	13792
106954752	12736	12736
109051904	11312	11312
111149056	9600	9600
113246208	8912	8912
115343360	6912	6912
117440512	6096	6096
119537664	5712	5712
121634816	5936	5936
123731968	6192	6192
125829120	5792	5792
127926272	6368	6368
130023424	7248	7248
132120576	3824	3824
134217728	7472	7472
138412032	6608	6608
142606336	7760	7760
146800640	16880	16880
150994944	15968	15968
155189248	19040	19040
159383552	19344	19344
163577856	34064	34064
167772160	41840	41840
171966464	20464	20464
176160768	19568	19568
180355072	20848	20848
184549376	19760	19760
188743680	21840	21840
192937984	23056	23056
197132288	22592	22592
201326592	20976	20976
205520896	17712	17712
209715200	16016	16016
213909504	17520	17520
218103808	9344	9344
222298112	23584	23584
226492416	23056	23056
230686720	9312	9312
234881024	18448	18448
239075328	8624	8624
243269632	5072	5072
247463936	1024	1008
251658240	1328	1328
255852544	1408	1408
260046848	688	688
264241152	1600	1600
268435456	2992	2992
276824064	3872	3872
285212672	5312	5312
293601280	5904	5904
301989888	28176	28176
310378496	6864	6848
318767104	8176	8176
327155712	6784	6784
335544320	12864	12864
343932928	17056	17056
352321536	14128	14128
360710144	13424	13424
369098752	8064	8064
377487360	3552	3552
385875968	3328	3328
394264576	4208	4208
402653184	7312	7312
411041792	24432	24432
419430400	17776	17776
427819008	30400	30400
436207616	39552	39552
444596224	39024	39024
452984832	32336	32336
461373440	30528	30528
469762048	28976	27280
478150656	50688	47328
486539264	147840	144224
494927872	170032	168464
503316480	56672	56672
511705088	50992	50992
520093696	36896	36896
528482304	29504	29504
536870912	45952	45952
553648128	59424	59424
570425344	293872	293872
587202560	14016	14016
603979776	15024	15024
620756992	15088	15088
637534208	450160	450160
654311424	1807344	1807344
671088640	1662048	1662048
687865856	1015232	1015232
704643072	0	0
721420288	0	0
738197504	0	0
754974720	0	0
771751936	0	0
788529152	0	0
805306368	0	0
822083584	0	0
838860800	0	0
855638016	0	0
872415232	0	0
889192448	0	0
905969664	0	0
922746880	0	0
939524096	0	0
956301312	0	0
973078528	0	0
989855744	0	0
1006632960	0	0
1023410176	0	0
1040187392	0	0
1056964608	0	0
1073741824	0	0
1107296256	0	0
1140850688	0	0
1174405120	0	0
1207959552	0	0
1241513984	0	0
1275068416	0	0
1308622848	0	0
1342177280	0	0
1375731712	0	0
1409286144	0	0
1442840576	0	0
1476395008	0	0
1509949440	0	0
1543503872	0	0
1577058304	0	0
1610612736	0	0
1644167168	0	0
1677721600	0	0
1711276032	0	0
1744830464	0	0
1778384896	0	0
1811939328	0	0
1845493760	0	0
1879048192	0	0
1912602624	0	0
1946157056	0	0
1979711488	0	0
2013265920	0	0
2046820352	0	0
2080374784	0	0
2113929216	0	0
2147483648	0	0
2214592512	0	0
2281701376	0	0
2348810240	0	0
2415919104	0	0
2483027968	0	0
2550136832	0	0
2617245696	0	0
2684354560	0	0
2751463424	0	0
2818572288	0	0
2885681152	0	0
2952790016	0	0
3019898880	0	0
3087007744	0	0
3154116608	0	0
3221225472	0	0
3288334336	0	0
3355443200	0	0
3422552064	0	0
3489660928	0	0
3556769792	0	0
3623878656	0	0
3690987520	0	0
3758096384	0	0
3825205248	0	0
3892314112	0	0
3959422976	0	0
4026531840	0	0
4093640704	0	0
4160749568	0	0
4227858432	0	0
~~~~~~~~~~Reuse Distance Profiler output end~~~~~~~~~~

DRAM Statistics
 CHANNEL 0
 RQ ROW_BUFFER_HIT:      64063  ROW_BUFFER_MISS:   16543403
 DBUS AVG_CONGESTED_CYCLE:    3.98407
 WQ ROW_BUFFER_HIT:     354581  ROW_BUFFER_MISS:    6388549  FULL:         51


CPU 0 Branch Prediction Accuracy: 98.6399% MPKI: 0.223759 Average ROB Occupancy at Mispredict: 341.29
Branch type MPKI
BRANCH_DIRECT_JUMP: 2.13333e-05
BRANCH_INDIRECT: 2.66667e-06
BRANCH_CONDITIONAL: 0.223603
BRANCH_DIRECT_CALL: 6.73333e-05
BRANCH_INDIRECT_CALL: 0
BRANCH_RETURN: 6.53333e-05

