
*** ChampSim Multicore Out-of-Order Simulator ***

Warmup Instructions: 500000000
Simulation Instructions: 1500000000
Number of CPUs: 1
Off-chip DRAM Size: 4 GiB Channels: 1 Width: 64-bit Data Rate: 3200 MT/s

VirtualMemory physical capacity: 8588881920 num_ppages: 2096895
VirtualMemory page size: 4096 log2_page_size: 12

CPU 0 runs traces/459.GemsFDTD-1320B.champsimtrace.xz
CPU 0 Bimodal branch predictor
Basic BTB sets: 1024 ways: 8 indirect buffer size: 4096 RAS size: 64
Initializing LRU.
Initializing LRU.
Initializing LRU.
Initializing LRU.
Initializing rdLRU.
Initializing LRU.
Initializing LRU.
Heartbeat CPU 0 instructions: 10000001 cycles: 5180158 heartbeat IPC: 1.93044 cumulative IPC: 1.93044 (Simulation time: 0 hr 1 min 36 sec) 
Heartbeat CPU 0 instructions: 20000004 cycles: 10485972 heartbeat IPC: 1.88473 cumulative IPC: 1.90731 (Simulation time: 0 hr 3 min 15 sec) 
Heartbeat CPU 0 instructions: 30000001 cycles: 15828664 heartbeat IPC: 1.87172 cumulative IPC: 1.8953 (Simulation time: 0 hr 4 min 57 sec) 
Heartbeat CPU 0 instructions: 40000001 cycles: 21171313 heartbeat IPC: 1.87173 cumulative IPC: 1.88935 (Simulation time: 0 hr 6 min 34 sec) 
Heartbeat CPU 0 instructions: 50000001 cycles: 26398145 heartbeat IPC: 1.9132 cumulative IPC: 1.89407 (Simulation time: 0 hr 8 min 8 sec) 
Heartbeat CPU 0 instructions: 60000002 cycles: 31561611 heartbeat IPC: 1.93668 cumulative IPC: 1.90104 (Simulation time: 0 hr 9 min 41 sec) 
Heartbeat CPU 0 instructions: 70000002 cycles: 36718108 heartbeat IPC: 1.9393 cumulative IPC: 1.90642 (Simulation time: 0 hr 11 min 13 sec) 
Heartbeat CPU 0 instructions: 80000000 cycles: 41894153 heartbeat IPC: 1.93198 cumulative IPC: 1.90957 (Simulation time: 0 hr 12 min 44 sec) 
Heartbeat CPU 0 instructions: 90000000 cycles: 47096433 heartbeat IPC: 1.92223 cumulative IPC: 1.91097 (Simulation time: 0 hr 14 min 16 sec) 
Heartbeat CPU 0 instructions: 100000004 cycles: 52491212 heartbeat IPC: 1.85364 cumulative IPC: 1.90508 (Simulation time: 0 hr 15 min 54 sec) 
Heartbeat CPU 0 instructions: 110000000 cycles: 57919714 heartbeat IPC: 1.84213 cumulative IPC: 1.89918 (Simulation time: 0 hr 17 min 46 sec) 
Heartbeat CPU 0 instructions: 120000004 cycles: 63348175 heartbeat IPC: 1.84214 cumulative IPC: 1.89429 (Simulation time: 0 hr 19 min 31 sec) 
Heartbeat CPU 0 instructions: 130000001 cycles: 66504787 heartbeat IPC: 3.16795 cumulative IPC: 1.95475 (Simulation time: 0 hr 20 min 23 sec) 
Heartbeat CPU 0 instructions: 140000000 cycles: 69019868 heartbeat IPC: 3.97601 cumulative IPC: 2.0284 (Simulation time: 0 hr 20 min 58 sec) 
Heartbeat CPU 0 instructions: 150000004 cycles: 71534948 heartbeat IPC: 3.97602 cumulative IPC: 2.09688 (Simulation time: 0 hr 21 min 32 sec) 
Heartbeat CPU 0 instructions: 160000000 cycles: 74050023 heartbeat IPC: 3.97602 cumulative IPC: 2.1607 (Simulation time: 0 hr 22 min 8 sec) 
Heartbeat CPU 0 instructions: 170000000 cycles: 76565100 heartbeat IPC: 3.97602 cumulative IPC: 2.22033 (Simulation time: 0 hr 22 min 45 sec) 
Heartbeat CPU 0 instructions: 180000003 cycles: 79080184 heartbeat IPC: 3.97601 cumulative IPC: 2.27617 (Simulation time: 0 hr 23 min 25 sec) 
Heartbeat CPU 0 instructions: 190000001 cycles: 81595270 heartbeat IPC: 3.97601 cumulative IPC: 2.32857 (Simulation time: 0 hr 24 min 0 sec) 
Heartbeat CPU 0 instructions: 200000000 cycles: 84110356 heartbeat IPC: 3.97601 cumulative IPC: 2.37783 (Simulation time: 0 hr 24 min 35 sec) 
Heartbeat CPU 0 instructions: 210000004 cycles: 86625431 heartbeat IPC: 3.97603 cumulative IPC: 2.42423 (Simulation time: 0 hr 25 min 10 sec) 
Heartbeat CPU 0 instructions: 220000004 cycles: 89140511 heartbeat IPC: 3.97602 cumulative IPC: 2.46801 (Simulation time: 0 hr 25 min 45 sec) 
Heartbeat CPU 0 instructions: 230000004 cycles: 91655585 heartbeat IPC: 3.97603 cumulative IPC: 2.50939 (Simulation time: 0 hr 26 min 21 sec) 
Heartbeat CPU 0 instructions: 240000004 cycles: 94170663 heartbeat IPC: 3.97602 cumulative IPC: 2.54856 (Simulation time: 0 hr 26 min 56 sec) 
Heartbeat CPU 0 instructions: 250000000 cycles: 96685758 heartbeat IPC: 3.97599 cumulative IPC: 2.5857 (Simulation time: 0 hr 27 min 32 sec) 
Heartbeat CPU 0 instructions: 260000001 cycles: 99200835 heartbeat IPC: 3.97602 cumulative IPC: 2.62095 (Simulation time: 0 hr 28 min 6 sec) 
Heartbeat CPU 0 instructions: 270000002 cycles: 101715913 heartbeat IPC: 3.97602 cumulative IPC: 2.65445 (Simulation time: 0 hr 28 min 41 sec) 
Heartbeat CPU 0 instructions: 280000003 cycles: 104230988 heartbeat IPC: 3.97602 cumulative IPC: 2.68634 (Simulation time: 0 hr 29 min 17 sec) 
Heartbeat CPU 0 instructions: 290000002 cycles: 106746067 heartbeat IPC: 3.97602 cumulative IPC: 2.71673 (Simulation time: 0 hr 29 min 53 sec) 
Heartbeat CPU 0 instructions: 300000002 cycles: 109261149 heartbeat IPC: 3.97601 cumulative IPC: 2.74572 (Simulation time: 0 hr 30 min 28 sec) 
Heartbeat CPU 0 instructions: 310000003 cycles: 111776240 heartbeat IPC: 3.976 cumulative IPC: 2.7734 (Simulation time: 0 hr 31 min 2 sec) 
Heartbeat CPU 0 instructions: 320000004 cycles: 114291316 heartbeat IPC: 3.97602 cumulative IPC: 2.79986 (Simulation time: 0 hr 31 min 38 sec) 
Heartbeat CPU 0 instructions: 330000000 cycles: 116806394 heartbeat IPC: 3.97602 cumulative IPC: 2.82519 (Simulation time: 0 hr 32 min 12 sec) 
Heartbeat CPU 0 instructions: 340000000 cycles: 119321474 heartbeat IPC: 3.97602 cumulative IPC: 2.84945 (Simulation time: 0 hr 32 min 48 sec) 
Heartbeat CPU 0 instructions: 350000000 cycles: 121836547 heartbeat IPC: 3.97603 cumulative IPC: 2.8727 (Simulation time: 0 hr 33 min 24 sec) 
Heartbeat CPU 0 instructions: 360000001 cycles: 124351626 heartbeat IPC: 3.97602 cumulative IPC: 2.89502 (Simulation time: 0 hr 34 min 1 sec) 
Heartbeat CPU 0 instructions: 370000003 cycles: 126866718 heartbeat IPC: 3.976 cumulative IPC: 2.91645 (Simulation time: 0 hr 34 min 39 sec) 
Heartbeat CPU 0 instructions: 380000001 cycles: 129381802 heartbeat IPC: 3.97601 cumulative IPC: 2.93704 (Simulation time: 0 hr 35 min 16 sec) 
Heartbeat CPU 0 instructions: 390000001 cycles: 131896875 heartbeat IPC: 3.97603 cumulative IPC: 2.95686 (Simulation time: 0 hr 36 min 7 sec) 
Heartbeat CPU 0 instructions: 400000003 cycles: 134411955 heartbeat IPC: 3.97602 cumulative IPC: 2.97593 (Simulation time: 0 hr 36 min 43 sec) 
Heartbeat CPU 0 instructions: 410000003 cycles: 136927036 heartbeat IPC: 3.97602 cumulative IPC: 2.9943 (Simulation time: 0 hr 37 min 19 sec) 
Heartbeat CPU 0 instructions: 420000003 cycles: 139442109 heartbeat IPC: 3.97603 cumulative IPC: 3.012 (Simulation time: 0 hr 37 min 55 sec) 
Heartbeat CPU 0 instructions: 430000001 cycles: 141957196 heartbeat IPC: 3.976 cumulative IPC: 3.02908 (Simulation time: 0 hr 38 min 45 sec) 
Heartbeat CPU 0 instructions: 440000000 cycles: 144472282 heartbeat IPC: 3.97601 cumulative IPC: 3.04557 (Simulation time: 0 hr 39 min 20 sec) 
Heartbeat CPU 0 instructions: 450000003 cycles: 146987363 heartbeat IPC: 3.97602 cumulative IPC: 3.06149 (Simulation time: 0 hr 39 min 55 sec) 
Heartbeat CPU 0 instructions: 460000004 cycles: 149502437 heartbeat IPC: 3.97603 cumulative IPC: 3.07687 (Simulation time: 0 hr 40 min 30 sec) 
Heartbeat CPU 0 instructions: 470000002 cycles: 152017517 heartbeat IPC: 3.97602 cumulative IPC: 3.09175 (Simulation time: 0 hr 41 min 5 sec) 
Heartbeat CPU 0 instructions: 480000001 cycles: 154532600 heartbeat IPC: 3.97601 cumulative IPC: 3.10614 (Simulation time: 0 hr 41 min 41 sec) 
Heartbeat CPU 0 instructions: 490000001 cycles: 157047678 heartbeat IPC: 3.97602 cumulative IPC: 3.12007 (Simulation time: 0 hr 42 min 17 sec) 
Heartbeat CPU 0 instructions: 500000003 cycles: 159562765 heartbeat IPC: 3.97601 cumulative IPC: 3.13356 (Simulation time: 0 hr 42 min 54 sec) 

Warmup complete CPU 0 instructions: 500000003 cycles: 159562765 (Simulation time: 0 hr 42 min 54 sec) 

Heartbeat CPU 0 instructions: 510000001 cycles: 184168795 heartbeat IPC: 0.406404 cumulative IPC: 0.406404 (Simulation time: 0 hr 46 min 0 sec) 
Heartbeat CPU 0 instructions: 520000003 cycles: 208830388 heartbeat IPC: 0.405489 cumulative IPC: 0.405946 (Simulation time: 0 hr 49 min 4 sec) 
Heartbeat CPU 0 instructions: 530000001 cycles: 233566308 heartbeat IPC: 0.40427 cumulative IPC: 0.405386 (Simulation time: 0 hr 52 min 11 sec) 
Heartbeat CPU 0 instructions: 540000004 cycles: 250713296 heartbeat IPC: 0.583193 cumulative IPC: 0.438835 (Simulation time: 0 hr 54 min 55 sec) 
Heartbeat CPU 0 instructions: 550000003 cycles: 265595276 heartbeat IPC: 0.671954 cumulative IPC: 0.471553 (Simulation time: 0 hr 57 min 27 sec) 
Heartbeat CPU 0 instructions: 560000001 cycles: 280474930 heartbeat IPC: 0.672059 cumulative IPC: 0.496228 (Simulation time: 0 hr 59 min 58 sec) 
Heartbeat CPU 0 instructions: 570000002 cycles: 295353729 heartbeat IPC: 0.672097 cumulative IPC: 0.515498 (Simulation time: 1 hr 2 min 28 sec) 
Heartbeat CPU 0 instructions: 580000004 cycles: 310236208 heartbeat IPC: 0.671931 cumulative IPC: 0.53095 (Simulation time: 1 hr 4 min 59 sec) 
Heartbeat CPU 0 instructions: 590000000 cycles: 325117748 heartbeat IPC: 0.671973 cumulative IPC: 0.543626 (Simulation time: 1 hr 7 min 30 sec) 
Heartbeat CPU 0 instructions: 600000000 cycles: 340003600 heartbeat IPC: 0.671779 cumulative IPC: 0.554198 (Simulation time: 1 hr 10 min 2 sec) 
Heartbeat CPU 0 instructions: 610000000 cycles: 354879922 heartbeat IPC: 0.672209 cumulative IPC: 0.563187 (Simulation time: 1 hr 13 min 0 sec) 
Heartbeat CPU 0 instructions: 620000003 cycles: 369755274 heartbeat IPC: 0.672253 cumulative IPC: 0.570905 (Simulation time: 1 hr 15 min 36 sec) 
Heartbeat CPU 0 instructions: 630000000 cycles: 384633766 heartbeat IPC: 0.672111 cumulative IPC: 0.577595 (Simulation time: 1 hr 18 min 12 sec) 
Heartbeat CPU 0 instructions: 640000001 cycles: 399521285 heartbeat IPC: 0.671704 cumulative IPC: 0.583434 (Simulation time: 1 hr 20 min 49 sec) 
Heartbeat CPU 0 instructions: 650000000 cycles: 414408763 heartbeat IPC: 0.671705 cumulative IPC: 0.588591 (Simulation time: 1 hr 23 min 27 sec) 
Heartbeat CPU 0 instructions: 660000000 cycles: 429288594 heartbeat IPC: 0.672051 cumulative IPC: 0.593195 (Simulation time: 1 hr 26 min 24 sec) 
Heartbeat CPU 0 instructions: 670000004 cycles: 444224305 heartbeat IPC: 0.669537 cumulative IPC: 0.5972 (Simulation time: 1 hr 29 min 13 sec) 
Heartbeat CPU 0 instructions: 680000001 cycles: 468717520 heartbeat IPC: 0.408276 cumulative IPC: 0.582233 (Simulation time: 1 hr 33 min 11 sec) 
Heartbeat CPU 0 instructions: 690000003 cycles: 483101316 heartbeat IPC: 0.695227 cumulative IPC: 0.587256 (Simulation time: 1 hr 35 min 47 sec) 
Heartbeat CPU 0 instructions: 700000002 cycles: 497482189 heartbeat IPC: 0.695368 cumulative IPC: 0.591857 (Simulation time: 1 hr 38 min 16 sec) 
Heartbeat CPU 0 instructions: 710000002 cycles: 511865222 heartbeat IPC: 0.695264 cumulative IPC: 0.596079 (Simulation time: 1 hr 40 min 45 sec) 
Heartbeat CPU 0 instructions: 720000000 cycles: 526250240 heartbeat IPC: 0.695168 cumulative IPC: 0.599966 (Simulation time: 1 hr 43 min 16 sec) 
Heartbeat CPU 0 instructions: 730000001 cycles: 540636124 heartbeat IPC: 0.695126 cumulative IPC: 0.603558 (Simulation time: 1 hr 46 min 10 sec) 
Heartbeat CPU 0 instructions: 740000000 cycles: 555020214 heartbeat IPC: 0.695212 cumulative IPC: 0.606892 (Simulation time: 1 hr 48 min 40 sec) 
Heartbeat CPU 0 instructions: 750000000 cycles: 569409582 heartbeat IPC: 0.694958 cumulative IPC: 0.609984 (Simulation time: 1 hr 51 min 8 sec) 
Heartbeat CPU 0 instructions: 760000000 cycles: 583797572 heartbeat IPC: 0.695024 cumulative IPC: 0.612868 (Simulation time: 1 hr 53 min 51 sec) 
Heartbeat CPU 0 instructions: 770000000 cycles: 598186004 heartbeat IPC: 0.695003 cumulative IPC: 0.615562 (Simulation time: 1 hr 56 min 33 sec) 
Heartbeat CPU 0 instructions: 780000003 cycles: 612577697 heartbeat IPC: 0.694845 cumulative IPC: 0.618081 (Simulation time: 1 hr 59 min 6 sec) 
Heartbeat CPU 0 instructions: 790000001 cycles: 626966167 heartbeat IPC: 0.695001 cumulative IPC: 0.620449 (Simulation time: 2 hr 1 min 42 sec) 
Heartbeat CPU 0 instructions: 800000003 cycles: 641355529 heartbeat IPC: 0.694958 cumulative IPC: 0.622674 (Simulation time: 2 hr 4 min 15 sec) 
Heartbeat CPU 0 instructions: 810000004 cycles: 655750062 heartbeat IPC: 0.694708 cumulative IPC: 0.624764 (Simulation time: 2 hr 6 min 46 sec) 
Heartbeat CPU 0 instructions: 820000004 cycles: 670141758 heartbeat IPC: 0.694845 cumulative IPC: 0.626739 (Simulation time: 2 hr 9 min 16 sec) 
Heartbeat CPU 0 instructions: 830000001 cycles: 684280608 heartbeat IPC: 0.707271 cumulative IPC: 0.628909 (Simulation time: 2 hr 11 min 46 sec) 
Heartbeat CPU 0 instructions: 840000001 cycles: 698216484 heartbeat IPC: 0.717572 cumulative IPC: 0.631203 (Simulation time: 2 hr 14 min 13 sec) 
Heartbeat CPU 0 instructions: 850000001 cycles: 712102096 heartbeat IPC: 0.72017 cumulative IPC: 0.633439 (Simulation time: 2 hr 16 min 40 sec) 
Heartbeat CPU 0 instructions: 860000000 cycles: 726059305 heartbeat IPC: 0.716476 cumulative IPC: 0.635485 (Simulation time: 2 hr 19 min 7 sec) 
Heartbeat CPU 0 instructions: 870000001 cycles: 739995382 heartbeat IPC: 0.717562 cumulative IPC: 0.637456 (Simulation time: 2 hr 21 min 34 sec) 
Heartbeat CPU 0 instructions: 880000002 cycles: 753890311 heartbeat IPC: 0.719687 cumulative IPC: 0.639378 (Simulation time: 2 hr 24 min 0 sec) 
Heartbeat CPU 0 instructions: 890000000 cycles: 767847541 heartbeat IPC: 0.716474 cumulative IPC: 0.641147 (Simulation time: 2 hr 26 min 27 sec) 
Heartbeat CPU 0 instructions: 900000000 cycles: 781783926 heartbeat IPC: 0.717546 cumulative IPC: 0.642858 (Simulation time: 2 hr 28 min 55 sec) 
Heartbeat CPU 0 instructions: 910000000 cycles: 795695460 heartbeat IPC: 0.718828 cumulative IPC: 0.64452 (Simulation time: 2 hr 31 min 22 sec) 
Heartbeat CPU 0 instructions: 920000000 cycles: 809684677 heartbeat IPC: 0.714836 cumulative IPC: 0.646033 (Simulation time: 2 hr 33 min 49 sec) 
Heartbeat CPU 0 instructions: 930000002 cycles: 823616701 heartbeat IPC: 0.717771 cumulative IPC: 0.647538 (Simulation time: 2 hr 36 min 16 sec) 
Heartbeat CPU 0 instructions: 940000003 cycles: 837540268 heartbeat IPC: 0.718207 cumulative IPC: 0.648989 (Simulation time: 2 hr 38 min 43 sec) 
Heartbeat CPU 0 instructions: 950000004 cycles: 849853332 heartbeat IPC: 0.812146 cumulative IPC: 0.651899 (Simulation time: 2 hr 40 min 57 sec) 
Heartbeat CPU 0 instructions: 960000002 cycles: 863786036 heartbeat IPC: 0.717736 cumulative IPC: 0.653202 (Simulation time: 2 hr 43 min 23 sec) 
Heartbeat CPU 0 instructions: 970000002 cycles: 877856935 heartbeat IPC: 0.710687 cumulative IPC: 0.654328 (Simulation time: 2 hr 45 min 49 sec) 
Heartbeat CPU 0 instructions: 980000000 cycles: 891869748 heartbeat IPC: 0.713632 cumulative IPC: 0.655463 (Simulation time: 2 hr 48 min 15 sec) 
Heartbeat CPU 0 instructions: 990000004 cycles: 905868270 heartbeat IPC: 0.714361 cumulative IPC: 0.656568 (Simulation time: 2 hr 50 min 44 sec) 
Heartbeat CPU 0 instructions: 1000000002 cycles: 919885078 heartbeat IPC: 0.713429 cumulative IPC: 0.657616 (Simulation time: 2 hr 53 min 10 sec) 
Heartbeat CPU 0 instructions: 1010000002 cycles: 933889573 heartbeat IPC: 0.714056 cumulative IPC: 0.658637 (Simulation time: 2 hr 55 min 36 sec) 
Heartbeat CPU 0 instructions: 1020000002 cycles: 947890614 heartbeat IPC: 0.714233 cumulative IPC: 0.659624 (Simulation time: 2 hr 58 min 2 sec) 
Heartbeat CPU 0 instructions: 1030000003 cycles: 961953183 heartbeat IPC: 0.711108 cumulative IPC: 0.660526 (Simulation time: 3 hr 0 min 29 sec) 
Heartbeat CPU 0 instructions: 1040000000 cycles: 975954702 heartbeat IPC: 0.714208 cumulative IPC: 0.661447 (Simulation time: 3 hr 2 min 55 sec) 
Heartbeat CPU 0 instructions: 1050000000 cycles: 989912141 heartbeat IPC: 0.716464 cumulative IPC: 0.662372 (Simulation time: 3 hr 5 min 22 sec) 
Heartbeat CPU 0 instructions: 1060000000 cycles: 1003906764 heartbeat IPC: 0.71456 cumulative IPC: 0.663237 (Simulation time: 3 hr 7 min 49 sec) 
Heartbeat CPU 0 instructions: 1070000000 cycles: 1018331285 heartbeat IPC: 0.693264 cumulative IPC: 0.663741 (Simulation time: 3 hr 10 min 18 sec) 
Heartbeat CPU 0 instructions: 1080000002 cycles: 1033400771 heartbeat IPC: 0.663593 cumulative IPC: 0.663739 (Simulation time: 3 hr 12 min 52 sec) 
Heartbeat CPU 0 instructions: 1090000000 cycles: 1048292301 heartbeat IPC: 0.671523 cumulative IPC: 0.663869 (Simulation time: 3 hr 15 min 24 sec) 
Heartbeat CPU 0 instructions: 1100000001 cycles: 1063304960 heartbeat IPC: 0.666105 cumulative IPC: 0.663906 (Simulation time: 3 hr 17 min 57 sec) 
Heartbeat CPU 0 instructions: 1110000000 cycles: 1078275338 heartbeat IPC: 0.667986 cumulative IPC: 0.663973 (Simulation time: 3 hr 20 min 30 sec) 
Heartbeat CPU 0 instructions: 1120000000 cycles: 1093216877 heartbeat IPC: 0.669275 cumulative IPC: 0.664057 (Simulation time: 3 hr 23 min 3 sec) 
Heartbeat CPU 0 instructions: 1130000000 cycles: 1108183216 heartbeat IPC: 0.668166 cumulative IPC: 0.664122 (Simulation time: 3 hr 25 min 36 sec) 
Heartbeat CPU 0 instructions: 1140000004 cycles: 1123178727 heartbeat IPC: 0.666866 cumulative IPC: 0.664165 (Simulation time: 3 hr 28 min 11 sec) 
Heartbeat CPU 0 instructions: 1150000003 cycles: 1138177994 heartbeat IPC: 0.666699 cumulative IPC: 0.664204 (Simulation time: 3 hr 30 min 44 sec) 
Heartbeat CPU 0 instructions: 1160000004 cycles: 1153023764 heartbeat IPC: 0.673593 cumulative IPC: 0.664344 (Simulation time: 3 hr 33 min 15 sec) 
Heartbeat CPU 0 instructions: 1170000003 cycles: 1168075108 heartbeat IPC: 0.664392 cumulative IPC: 0.664345 (Simulation time: 3 hr 35 min 48 sec) 
Heartbeat CPU 0 instructions: 1180000001 cycles: 1180852959 heartbeat IPC: 0.782604 cumulative IPC: 0.665824 (Simulation time: 3 hr 38 min 4 sec) 
Heartbeat CPU 0 instructions: 1190000003 cycles: 1195760733 heartbeat IPC: 0.670791 cumulative IPC: 0.665896 (Simulation time: 3 hr 40 min 37 sec) 
Heartbeat CPU 0 instructions: 1200000001 cycles: 1210618073 heartbeat IPC: 0.673068 cumulative IPC: 0.665997 (Simulation time: 3 hr 43 min 8 sec) 
Heartbeat CPU 0 instructions: 1210000002 cycles: 1225512072 heartbeat IPC: 0.671411 cumulative IPC: 0.666073 (Simulation time: 3 hr 45 min 40 sec) 
Heartbeat CPU 0 instructions: 1220000002 cycles: 1240412401 heartbeat IPC: 0.671126 cumulative IPC: 0.666143 (Simulation time: 3 hr 48 min 12 sec) 
Heartbeat CPU 0 instructions: 1230000003 cycles: 1255321705 heartbeat IPC: 0.670722 cumulative IPC: 0.666205 (Simulation time: 3 hr 50 min 43 sec) 
Heartbeat CPU 0 instructions: 1240000000 cycles: 1270213373 heartbeat IPC: 0.671516 cumulative IPC: 0.666276 (Simulation time: 3 hr 53 min 15 sec) 
Heartbeat CPU 0 instructions: 1250000001 cycles: 1285123328 heartbeat IPC: 0.670693 cumulative IPC: 0.666335 (Simulation time: 3 hr 55 min 46 sec) 
Heartbeat CPU 0 instructions: 1260000003 cycles: 1299990202 heartbeat IPC: 0.672637 cumulative IPC: 0.666417 (Simulation time: 3 hr 58 min 18 sec) 
Heartbeat CPU 0 instructions: 1270000004 cycles: 1314844045 heartbeat IPC: 0.673227 cumulative IPC: 0.666504 (Simulation time: 4 hr 0 min 49 sec) 
Heartbeat CPU 0 instructions: 1280000000 cycles: 1329720791 heartbeat IPC: 0.67219 cumulative IPC: 0.666577 (Simulation time: 4 hr 3 min 20 sec) 
Heartbeat CPU 0 instructions: 1290000000 cycles: 1341449939 heartbeat IPC: 0.852577 cumulative IPC: 0.668423 (Simulation time: 4 hr 5 min 18 sec) 
Heartbeat CPU 0 instructions: 1300000000 cycles: 1354775579 heartbeat IPC: 0.750433 cumulative IPC: 0.669337 (Simulation time: 4 hr 7 min 4 sec) 
Heartbeat CPU 0 instructions: 1310000003 cycles: 1368662404 heartbeat IPC: 0.720107 cumulative IPC: 0.66992 (Simulation time: 4 hr 8 min 53 sec) 
Heartbeat CPU 0 instructions: 1320000000 cycles: 1374705714 heartbeat IPC: 1.65472 cumulative IPC: 0.674818 (Simulation time: 4 hr 9 min 51 sec) 
Heartbeat CPU 0 instructions: 1330000004 cycles: 1380129625 heartbeat IPC: 1.84369 cumulative IPC: 0.680012 (Simulation time: 4 hr 10 min 47 sec) 
Heartbeat CPU 0 instructions: 1340000003 cycles: 1385203155 heartbeat IPC: 1.97101 cumulative IPC: 0.685356 (Simulation time: 4 hr 11 min 42 sec) 
Heartbeat CPU 0 instructions: 1350000003 cycles: 1406315658 heartbeat IPC: 0.473653 cumulative IPC: 0.681771 (Simulation time: 4 hr 14 min 17 sec) 
Heartbeat CPU 0 instructions: 1360000004 cycles: 1435442154 heartbeat IPC: 0.34333 cumulative IPC: 0.674045 (Simulation time: 4 hr 17 min 47 sec) 
Heartbeat CPU 0 instructions: 1370000004 cycles: 1464574552 heartbeat IPC: 0.34326 cumulative IPC: 0.666661 (Simulation time: 4 hr 21 min 17 sec) 
Heartbeat CPU 0 instructions: 1380000002 cycles: 1493715617 heartbeat IPC: 0.343158 cumulative IPC: 0.659595 (Simulation time: 4 hr 24 min 48 sec) 
Heartbeat CPU 0 instructions: 1390000003 cycles: 1522873425 heartbeat IPC: 0.342961 cumulative IPC: 0.652823 (Simulation time: 4 hr 28 min 18 sec) 
Heartbeat CPU 0 instructions: 1400000003 cycles: 1552028464 heartbeat IPC: 0.342994 cumulative IPC: 0.646335 (Simulation time: 4 hr 31 min 48 sec) 
Heartbeat CPU 0 instructions: 1410000002 cycles: 1581187328 heartbeat IPC: 0.342949 cumulative IPC: 0.640113 (Simulation time: 4 hr 35 min 19 sec) 
Heartbeat CPU 0 instructions: 1420000001 cycles: 1610375740 heartbeat IPC: 0.342602 cumulative IPC: 0.634127 (Simulation time: 4 hr 38 min 51 sec) 
Heartbeat CPU 0 instructions: 1430000002 cycles: 1639454554 heartbeat IPC: 0.343893 cumulative IPC: 0.628424 (Simulation time: 4 hr 42 min 23 sec) 
Heartbeat CPU 0 instructions: 1440000003 cycles: 1668591783 heartbeat IPC: 0.343204 cumulative IPC: 0.622917 (Simulation time: 4 hr 45 min 55 sec) 
Heartbeat CPU 0 instructions: 1450000002 cycles: 1697690005 heartbeat IPC: 0.343664 cumulative IPC: 0.617634 (Simulation time: 4 hr 49 min 27 sec) 
Heartbeat CPU 0 instructions: 1460000000 cycles: 1726853170 heartbeat IPC: 0.342898 cumulative IPC: 0.612522 (Simulation time: 4 hr 52 min 58 sec) 
Heartbeat CPU 0 instructions: 1470000002 cycles: 1756041997 heartbeat IPC: 0.342597 cumulative IPC: 0.607587 (Simulation time: 4 hr 56 min 31 sec) 
Heartbeat CPU 0 instructions: 1480000002 cycles: 1785165700 heartbeat IPC: 0.343363 cumulative IPC: 0.602853 (Simulation time: 5 hr 0 min 4 sec) 
Heartbeat CPU 0 instructions: 1490000002 cycles: 1814289978 heartbeat IPC: 0.343356 cumulative IPC: 0.598286 (Simulation time: 5 hr 3 min 35 sec) 
Heartbeat CPU 0 instructions: 1500000001 cycles: 1843445429 heartbeat IPC: 0.342989 cumulative IPC: 0.593866 (Simulation time: 5 hr 7 min 6 sec) 
Heartbeat CPU 0 instructions: 1510000004 cycles: 1872588546 heartbeat IPC: 0.343134 cumulative IPC: 0.5896 (Simulation time: 5 hr 10 min 36 sec) 
Heartbeat CPU 0 instructions: 1520000003 cycles: 1901661732 heartbeat IPC: 0.34396 cumulative IPC: 0.585501 (Simulation time: 5 hr 14 min 7 sec) 
Heartbeat CPU 0 instructions: 1530000003 cycles: 1930774031 heartbeat IPC: 0.343497 cumulative IPC: 0.581523 (Simulation time: 5 hr 17 min 38 sec) 
Heartbeat CPU 0 instructions: 1540000003 cycles: 1959941549 heartbeat IPC: 0.342847 cumulative IPC: 0.577656 (Simulation time: 5 hr 21 min 9 sec) 
Heartbeat CPU 0 instructions: 1550000000 cycles: 1989146409 heartbeat IPC: 0.342409 cumulative IPC: 0.573901 (Simulation time: 5 hr 24 min 41 sec) 
Heartbeat CPU 0 instructions: 1560000004 cycles: 2018314900 heartbeat IPC: 0.342836 cumulative IPC: 0.570275 (Simulation time: 5 hr 28 min 12 sec) 
Heartbeat CPU 0 instructions: 1570000003 cycles: 2047482084 heartbeat IPC: 0.342851 cumulative IPC: 0.566761 (Simulation time: 5 hr 31 min 43 sec) 
Heartbeat CPU 0 instructions: 1580000002 cycles: 2076622882 heartbeat IPC: 0.343161 cumulative IPC: 0.563363 (Simulation time: 5 hr 35 min 13 sec) 
Heartbeat CPU 0 instructions: 1590000002 cycles: 2105581557 heartbeat IPC: 0.34532 cumulative IPC: 0.560118 (Simulation time: 5 hr 38 min 43 sec) 
Heartbeat CPU 0 instructions: 1600000002 cycles: 2134649356 heartbeat IPC: 0.344023 cumulative IPC: 0.556938 (Simulation time: 5 hr 42 min 13 sec) 
Heartbeat CPU 0 instructions: 1610000001 cycles: 2163878128 heartbeat IPC: 0.342129 cumulative IPC: 0.553805 (Simulation time: 5 hr 45 min 44 sec) 
Heartbeat CPU 0 instructions: 1620000000 cycles: 2192913856 heartbeat IPC: 0.344403 cumulative IPC: 0.550815 (Simulation time: 5 hr 49 min 13 sec) 
Heartbeat CPU 0 instructions: 1630000004 cycles: 2222084112 heartbeat IPC: 0.342815 cumulative IPC: 0.547873 (Simulation time: 5 hr 52 min 44 sec) 
Heartbeat CPU 0 instructions: 1640000001 cycles: 2251241914 heartbeat IPC: 0.342961 cumulative IPC: 0.545017 (Simulation time: 5 hr 56 min 15 sec) 
Heartbeat CPU 0 instructions: 1650000001 cycles: 2280429022 heartbeat IPC: 0.342617 cumulative IPC: 0.542231 (Simulation time: 5 hr 59 min 45 sec) 
Heartbeat CPU 0 instructions: 1660000000 cycles: 2309596774 heartbeat IPC: 0.342844 cumulative IPC: 0.539526 (Simulation time: 6 hr 3 min 16 sec) 
Heartbeat CPU 0 instructions: 1670000004 cycles: 2338753793 heartbeat IPC: 0.342971 cumulative IPC: 0.536896 (Simulation time: 6 hr 6 min 49 sec) 
Heartbeat CPU 0 instructions: 1680000001 cycles: 2367830380 heartbeat IPC: 0.343919 cumulative IPC: 0.534356 (Simulation time: 6 hr 10 min 21 sec) 
Heartbeat CPU 0 instructions: 1690000002 cycles: 2396992488 heartbeat IPC: 0.342911 cumulative IPC: 0.53186 (Simulation time: 6 hr 13 min 52 sec) 
Heartbeat CPU 0 instructions: 1700000004 cycles: 2426140570 heartbeat IPC: 0.343076 cumulative IPC: 0.529433 (Simulation time: 6 hr 17 min 24 sec) 
Heartbeat CPU 0 instructions: 1710000002 cycles: 2455224962 heartbeat IPC: 0.343827 cumulative IPC: 0.527081 (Simulation time: 6 hr 20 min 54 sec) 
Heartbeat CPU 0 instructions: 1720000003 cycles: 2484315980 heartbeat IPC: 0.343749 cumulative IPC: 0.524787 (Simulation time: 6 hr 24 min 26 sec) 
Heartbeat CPU 0 instructions: 1730000002 cycles: 2513413493 heartbeat IPC: 0.343672 cumulative IPC: 0.522548 (Simulation time: 6 hr 27 min 57 sec) 
Heartbeat CPU 0 instructions: 1740000002 cycles: 2534894638 heartbeat IPC: 0.465525 cumulative IPC: 0.522032 (Simulation time: 6 hr 30 min 56 sec) 
Heartbeat CPU 0 instructions: 1750000003 cycles: 2550424449 heartbeat IPC: 0.643923 cumulative IPC: 0.522824 (Simulation time: 6 hr 33 min 30 sec) 
Heartbeat CPU 0 instructions: 1760000004 cycles: 2565941200 heartbeat IPC: 0.644465 cumulative IPC: 0.523608 (Simulation time: 6 hr 36 min 4 sec) 
Heartbeat CPU 0 instructions: 1770000002 cycles: 2581466301 heartbeat IPC: 0.644118 cumulative IPC: 0.524381 (Simulation time: 6 hr 38 min 38 sec) 
Heartbeat CPU 0 instructions: 1780000003 cycles: 2596995612 heartbeat IPC: 0.643944 cumulative IPC: 0.525143 (Simulation time: 6 hr 41 min 12 sec) 
Heartbeat CPU 0 instructions: 1790000001 cycles: 2612521127 heartbeat IPC: 0.644101 cumulative IPC: 0.525896 (Simulation time: 6 hr 43 min 47 sec) 
Heartbeat CPU 0 instructions: 1800000001 cycles: 2628046884 heartbeat IPC: 0.644091 cumulative IPC: 0.526639 (Simulation time: 6 hr 46 min 21 sec) 
Heartbeat CPU 0 instructions: 1810000003 cycles: 2643576481 heartbeat IPC: 0.643932 cumulative IPC: 0.527372 (Simulation time: 6 hr 48 min 54 sec) 
Heartbeat CPU 0 instructions: 1820000003 cycles: 2659105389 heartbeat IPC: 0.64396 cumulative IPC: 0.528097 (Simulation time: 6 hr 51 min 28 sec) 
Heartbeat CPU 0 instructions: 1830000002 cycles: 2674624665 heartbeat IPC: 0.64436 cumulative IPC: 0.528814 (Simulation time: 6 hr 54 min 2 sec) 
Heartbeat CPU 0 instructions: 1840000002 cycles: 2690149455 heartbeat IPC: 0.644131 cumulative IPC: 0.529521 (Simulation time: 6 hr 56 min 36 sec) 
Heartbeat CPU 0 instructions: 1850000003 cycles: 2705663336 heartbeat IPC: 0.644584 cumulative IPC: 0.530223 (Simulation time: 6 hr 59 min 8 sec) 
Heartbeat CPU 0 instructions: 1860000004 cycles: 2721188189 heartbeat IPC: 0.644129 cumulative IPC: 0.530913 (Simulation time: 7 hr 1 min 42 sec) 
Heartbeat CPU 0 instructions: 1870000004 cycles: 2759701672 heartbeat IPC: 0.259649 cumulative IPC: 0.526895 (Simulation time: 7 hr 6 min 43 sec) 
Heartbeat CPU 0 instructions: 1880000000 cycles: 2793614590 heartbeat IPC: 0.294873 cumulative IPC: 0.523908 (Simulation time: 7 hr 11 min 9 sec) 
Heartbeat CPU 0 instructions: 1890000003 cycles: 2808480629 heartbeat IPC: 0.672674 cumulative IPC: 0.524743 (Simulation time: 7 hr 13 min 39 sec) 
Heartbeat CPU 0 instructions: 1900000001 cycles: 2823337950 heartbeat IPC: 0.673069 cumulative IPC: 0.52557 (Simulation time: 7 hr 16 min 8 sec) 
Heartbeat CPU 0 instructions: 1910000000 cycles: 2838201748 heartbeat IPC: 0.672776 cumulative IPC: 0.526387 (Simulation time: 7 hr 18 min 38 sec) 
Heartbeat CPU 0 instructions: 1920000000 cycles: 2853066337 heartbeat IPC: 0.67274 cumulative IPC: 0.527194 (Simulation time: 7 hr 21 min 8 sec) 
Heartbeat CPU 0 instructions: 1930000002 cycles: 2867930416 heartbeat IPC: 0.672763 cumulative IPC: 0.527993 (Simulation time: 7 hr 23 min 38 sec) 
Heartbeat CPU 0 instructions: 1940000000 cycles: 2882792752 heartbeat IPC: 0.672842 cumulative IPC: 0.528784 (Simulation time: 7 hr 26 min 8 sec) 
Heartbeat CPU 0 instructions: 1950000000 cycles: 2897661876 heartbeat IPC: 0.672535 cumulative IPC: 0.529564 (Simulation time: 7 hr 28 min 37 sec) 
Heartbeat CPU 0 instructions: 1960000003 cycles: 2912526273 heartbeat IPC: 0.672749 cumulative IPC: 0.530338 (Simulation time: 7 hr 31 min 7 sec) 
Heartbeat CPU 0 instructions: 1970000001 cycles: 2927396000 heartbeat IPC: 0.672507 cumulative IPC: 0.531101 (Simulation time: 7 hr 33 min 37 sec) 
Heartbeat CPU 0 instructions: 1980000001 cycles: 2942257980 heartbeat IPC: 0.672858 cumulative IPC: 0.531858 (Simulation time: 7 hr 36 min 6 sec) 
Heartbeat CPU 0 instructions: 1990000001 cycles: 2957118412 heartbeat IPC: 0.672928 cumulative IPC: 0.532608 (Simulation time: 7 hr 38 min 35 sec) 
*** Reached end of trace: traces/459.GemsFDTD-1320B.champsimtrace.xz
Heartbeat CPU 0 instructions: 2000000001 cycles: 2971974802 heartbeat IPC: 0.673111 cumulative IPC: 0.53335 (Simulation time: 7 hr 41 min 5 sec) 
Finished CPU 0 instructions: 1500000003 cycles: 2812412252 cumulative IPC: 0.53335 (Simulation time: 7 hr 41 min 5 sec) 

ChampSim completed all CPUs

Region of Interest Statistics

CPU 0 cumulative IPC: 0.53335 instructions: 1500000003 cycles: 2812412252
cpu0_DTLB TOTAL     ACCESS:  602177999  HIT:  596951089  MISS:    5226910
cpu0_DTLB LOAD      ACCESS:  536928750  HIT:  532830082  MISS:    4098668
cpu0_DTLB RFO       ACCESS:   65249249  HIT:   64121007  MISS:    1128242
cpu0_DTLB PREFETCH  ACCESS:          0  HIT:          0  MISS:          0
cpu0_DTLB WRITEBACK ACCESS:          0  HIT:          0  MISS:          0
cpu0_DTLB TRANSLATION ACCESS:          0  HIT:          0  MISS:          0
cpu0_DTLB PREFETCH  REQUESTED:          0  ISSUED:          0  USEFUL:          0  USELESS:          0
cpu0_DTLB AVERAGE MISS LATENCY: 21.66 cycles
cpu0_ITLB TOTAL     ACCESS:   24284513  HIT:   24284492  MISS:         21
cpu0_ITLB LOAD      ACCESS:   24284513  HIT:   24284492  MISS:         21
cpu0_ITLB RFO       ACCESS:          0  HIT:          0  MISS:          0
cpu0_ITLB PREFETCH  ACCESS:          0  HIT:          0  MISS:          0
cpu0_ITLB WRITEBACK ACCESS:          0  HIT:          0  MISS:          0
cpu0_ITLB TRANSLATION ACCESS:          0  HIT:          0  MISS:          0
cpu0_ITLB PREFETCH  REQUESTED:          0  ISSUED:          0  USEFUL:          0  USELESS:          0
cpu0_ITLB AVERAGE MISS LATENCY: 288.952 cycles
cpu0_L1I TOTAL     ACCESS:  115459416  HIT:  115458624  MISS:        792
cpu0_L1I LOAD      ACCESS:  115459416  HIT:  115458624  MISS:        792
cpu0_L1I RFO       ACCESS:          0  HIT:          0  MISS:          0
cpu0_L1I PREFETCH  ACCESS:          0  HIT:          0  MISS:          0
cpu0_L1I WRITEBACK ACCESS:          0  HIT:          0  MISS:          0
cpu0_L1I TRANSLATION ACCESS:          0  HIT:          0  MISS:          0
cpu0_L1I PREFETCH  REQUESTED:          0  ISSUED:          0  USEFUL:          0  USELESS:          0
cpu0_L1I AVERAGE MISS LATENCY: 356.529 cycles
cpu0_STLB TOTAL     ACCESS:    5226931  HIT:    4071286  MISS:    1155645
cpu0_STLB LOAD      ACCESS:    4098689  HIT:    2943837  MISS:    1154852
cpu0_STLB RFO       ACCESS:    1128242  HIT:    1127449  MISS:        793
cpu0_STLB PREFETCH  ACCESS:          0  HIT:          0  MISS:          0
cpu0_STLB WRITEBACK ACCESS:          0  HIT:          0  MISS:          0
cpu0_STLB TRANSLATION ACCESS:          0  HIT:          0  MISS:          0
cpu0_STLB PREFETCH  REQUESTED:          0  ISSUED:          0  USEFUL:          0  USELESS:          0
cpu0_STLB AVERAGE MISS LATENCY: 57.2007 cycles
cpu0_L1D TOTAL     ACCESS:  663962551  HIT:  643718749  MISS:   20243802
cpu0_L1D LOAD      ACCESS:  557857706  HIT:  537819408  MISS:   20038298
cpu0_L1D RFO       ACCESS:  105013780  HIT:  104848306  MISS:     165474
cpu0_L1D PREFETCH  ACCESS:          0  HIT:          0  MISS:          0
cpu0_L1D WRITEBACK ACCESS:          0  HIT:          0  MISS:          0
cpu0_L1D TRANSLATION ACCESS:    1091065  HIT:    1051035  MISS:      40030
cpu0_L1D PREFETCH  REQUESTED:          0  ISSUED:          0  USEFUL:          0  USELESS:          0
cpu0_L1D AVERAGE MISS LATENCY: 481.949 cycles
cpu0_L2C TOTAL     ACCESS:   29027359  HIT:   10362240  MISS:   18665119
cpu0_L2C LOAD      ACCESS:   20039090  HIT:    1507066  MISS:   18532024
cpu0_L2C RFO       ACCESS:     165474  HIT:      33972  MISS:     131502
cpu0_L2C PREFETCH  ACCESS:          0  HIT:          0  MISS:          0
cpu0_L2C WRITEBACK ACCESS:    8782765  HIT:    8782382  MISS:        383
cpu0_L2C TRANSLATION ACCESS:      40030  HIT:      38820  MISS:       1210
cpu0_L2C PREFETCH  REQUESTED:          0  ISSUED:          0  USEFUL:          0  USELESS:          0
cpu0_L2C AVERAGE MISS LATENCY: 510.729 cycles
LLC TOTAL     ACCESS:   27407337  HIT:    9326110  MISS:   18081227
LLC LOAD      ACCESS:   18532024  HIT:     487023  MISS:   18045001
LLC RFO       ACCESS:     131502  HIT:      96319  MISS:      35183
LLC PREFETCH  ACCESS:          0  HIT:          0  MISS:          0
LLC WRITEBACK ACCESS:    8742601  HIT:    8742320  MISS:        281
LLC TRANSLATION ACCESS:       1210  HIT:        448  MISS:        762
LLC PREFETCH  REQUESTED:          0  ISSUED:          0  USEFUL:          0  USELESS:          0
LLC AVERAGE MISS LATENCY: 505.544 cycles
~~~~~~~~~~Reuse Distance Profiler output~~~~~~~~~~
0	41165872	8532608
1	19898672	13442816
2	18106464	13422016
3	24325232	18496928
4	25588016	17097424
5	29225280	19901184
6	29073248	21049056
7	28680752	21993776
8	27335936	20901552
9	21167120	18757824
10	23500880	21445488
11	21965232	20063360
12	21843376	20682672
13	32417456	30929952
14	27808720	27149920
15	20234560	19684096
16	12032080	11660768
17	9708224	9215312
18	8544800	8131424
19	8874864	8396384
20	7699232	7223616
21	7123904	6631280
22	5822384	5358832
23	7235296	6435648
24	5809296	5160000
25	4966352	4455344
26	4901360	4460128
27	4905072	4463120
28	4684640	4198928
29	4528544	4148624
30	4229104	3819808
31	4047632	3603808
32	4058160	3578848
33	3938688	3381792
34	3804256	3234048
35	3733152	3178288
36	3327056	2817584
37	3548752	3027680
38	2914000	2488144
39	2963216	2455472
40	2991744	2484016
41	2707664	2243920
42	2827104	2276720
43	2599488	2092496
44	2347824	1907600
45	2435104	1930176
46	2431392	1968096
47	2414896	2013840
48	2524352	2052896
49	2512304	2075872
50	2334656	1877696
51	2373888	1948128
52	2536208	2128256
53	2708784	2321584
54	2746352	2436752
55	2674000	2375152
56	2636144	2371008
57	2578912	2352928
58	2487632	2251568
59	2659680	2463136
60	2376208	2187424
61	2446640	2291600
62	2336896	2190096
63	2372176	2228496
64	4433536	4155360
66	4473312	4222944
68	4262848	3970208
70	4479376	4216928
72	4835200	4500704
74	5353360	4939792
76	5434496	4988560
78	5288208	4945536
80	5661568	5348736
82	5827616	5528064
84	5692368	5345152
86	5250720	4889440
88	5380432	5038304
90	5505088	5211456
92	5469312	5132624
94	5551936	5209696
96	5976304	5527120
98	6625760	6081520
100	7174320	6486688
102	7459552	6586736
104	7714832	6802720
106	7641296	6685216
108	7040240	6166352
110	7119536	6207488
112	6197168	5391952
114	5115792	4498480
116	4031968	3567440
118	3396832	3004496
120	2776272	2466128
122	2252048	2012688
124	1765472	1562592
126	1471120	1298480
128	2393904	2075392
132	1857088	1696336
136	1277568	1193984
140	1160256	1098768
144	1009968	977504
148	863584	823616
152	902560	858400
156	1019248	967248
160	1152800	1114624
164	856736	818448
168	580016	535952
172	441344	410096
176	421200	363296
180	432000	371600
184	434608	407120
188	622800	612736
192	656688	653968
196	588656	587216
200	465152	464832
204	409616	409600
208	681376	681376
212	863120	862960
216	840240	840176
220	531392	531312
224	295312	295152
228	156064	156048
232	93792	93792
236	74656	74592
240	71248	71232
244	55728	55696
248	42880	42848
252	30848	30848
256	28880	28880
264	19264	19264
272	18048	18048
280	11792	11792
288	9840	9840
296	2944	2944
304	1584	1584
312	1152	1152
320	336	336
328	128	128
336	160	160
344	384	384
352	464	464
360	752	752
368	400	400
376	640	640
384	1504	1504
392	3248	3248
400	6384	6384
408	5968	5968
416	8528	8528
424	5024	5024
432	5936	5936
440	7056	7056
448	12064	12064
456	13440	13440
464	21600	21600
472	41888	41888
480	34992	34992
488	32272	32272
496	30928	30928
504	27760	27760
512	57376	57376
528	64032	64032
544	88592	88592
560	103456	103456
576	103744	103744
592	95888	95888
608	58656	58656
624	22064	22064
640	7648	7648
656	22944	22944
672	48544	48544
688	40368	40368
704	26608	26608
720	23904	23904
736	56400	56400
752	62928	62928
768	49152	49152
784	43536	43536
800	56880	56880
816	51440	51440
832	79344	79344
848	74240	74240
864	23488	23488
880	32560	32560
896	30192	30192
912	13216	13216
928	21040	21040
944	23184	23184
960	32208	32208
976	33264	33264
992	35552	35552
1008	36048	36048
1024	57632	57632
1056	189632	189632
1088	142928	142928
1120	111552	111552
1152	59696	59696
1184	170464	170464
1216	149152	149152
1248	121600	121600
1280	324192	324192
1312	395504	395504
1344	120192	120192
1376	474752	474752
1408	551552	551456
1440	17920	17728
1472	640	640
1504	704	704
1536	48	48
1568	0	0
1600	32	32
1632	112	112
1664	368	368
1696	2032	2032
1728	6400	6400
1760	18224	18224
1792	37680	37680
1824	62112	62112
1856	107984	107984
1888	164480	164480
1920	302736	302736
1952	622352	622352
1984	580912	580912
2016	391408	391408
2048	436480	436480
2112	77312	77312
2176	12864	12864
2240	1088	1088
2304	16	16
2368	0	0
2432	0	0
2496	0	0
2560	0	0
2624	0	0
2688	0	0
2752	16	16
2816	2041184	2041184
2880	128624	128624
2944	201648	201648
3008	0	0
3072	0	0
3136	0	0
3200	0	0
3264	0	0
3328	0	0
3392	0	0
3456	0	0
3520	0	0
3584	0	0
3648	0	0
3712	0	0
3776	0	0
3840	0	0
3904	0	0
3968	0	0
4032	0	0
4096	0	0
4224	0	0
4352	0	0
4480	4704	4704
4608	3840	3840
4736	1040	1040
4864	0	0
4992	0	0
5120	0	0
5248	16	16
5376	16	0
5504	144	144
5632	0	0
5760	16	0
5888	16	0
6016	16	0
6144	32	0
6272	0	0
6400	0	0
6528	16	0
6656	3136	3104
6784	5104	5104
6912	4976	4976
7040	7520	7520
7168	7504	7504
7296	4768	4768
7424	3312	3296
7552	1152	1152
7680	208	192
7808	80	64
7936	976	976
8064	8560	8560
8192	34752	34752
8448	11728	11728
8704	32	0
8960	32	16
9216	11472	11424
9472	59984	59936
9728	192	176
9984	0	0
10240	32	0
10496	32	0
10752	16	0
11008	32	16
11264	16	0
11520	0	0
11776	32	0
12032	64	48
12288	0	0
12544	16	0
12800	0	0
13056	0	0
13312	32	0
13568	48	16
13824	48	48
14080	16	0
14336	64	0
14592	20704	20704
14848	800	800
15104	39360	39360
15360	4928	4896
15616	16	16
15872	32	0
16128	16	0
16384	64	0
16896	32	0
17408	48	32
17920	32	0
18432	48	16
18944	64	0
19456	0	0
19968	48	0
20480	32	0
20992	32	0
21504	4848	4800
22016	554080	554032
22528	1025776	1025776
23040	171152	171152
23552	42128	42080
24064	416	352
24576	32	0
25088	64	32
25600	80	16
26112	32	0
26624	48	0
27136	32	0
27648	50368	50320
28160	333488	333456
28672	327168	327152
29184	224	192
29696	804976	804928
30208	549984	549776
30720	256	32
31232	480	32
31744	512	32
32256	496	48
32768	960	48
33792	1248	32
34816	944	64
35840	1344	80
36864	1200	112
37888	1264	96
38912	699408	698240
39936	712912	711856
40960	2064	1232
41984	864	64
43008	1120	64
44032	928	16
45056	976	32
46080	1152	64
47104	896	32
48128	1136	32
49152	944	96
50176	1008	128
51200	1312	272
52224	1408	224
53248	1344	192
54272	1168	192
55296	1248	48
56320	976	48
57344	992	64
58368	944	48
59392	1216	80
60416	1008	64
61440	1248	96
62464	1056	64
63488	1312	160
64512	1296	160
65536	2304	384
67584	2064	96
69632	2544	256
71680	2224	240
73728	2752	368
75776	1680	240
77824	944	192
79872	832	192
81920	976	320
83968	896	368
86016	944	400
88064	1200	592
90112	1120	368
92160	1696	1056
94208	1440	784
96256	1040	464
98304	784	192
100352	896	144
102400	1040	304
104448	976	496
106496	768	224
108544	848	240
110592	800	288
112640	768	416
114688	816	464
116736	752	560
118784	704	544
120832	400	192
122880	544	224
124928	480	128
126976	384	256
129024	576	432
131072	1456	784
135168	1248	944
139264	2512	1872
143360	1568	608
147456	1248	848
151552	800	480
155648	1024	592
159744	1632	976
163840	1264	480
167936	1376	656
172032	1520	1104
176128	1200	640
180224	768	496
184320	1696	1424
188416	1136	496
192512	1200	880
196608	1040	832
200704	1376	656
204800	1088	464
208896	848	480
212992	720	464
217088	752	432
221184	1216	864
225280	1776	752
229376	1488	1168
233472	1888	1568
237568	1584	1280
241664	960	688
245760	1440	1072
249856	2256	2016
253952	69360	68880
258048	71088	70352
262144	3168	1680
270336	38496	37216
278528	134176	132656
286720	1984	1360
294912	28160	26896
303104	244224	243648
311296	39056	38144
319488	303360	302240
327680	481136	480256
335872	2640	1984
344064	2368	1776
352256	2864	1840
360448	2528	1776
368640	2960	1120
376832	2384	1264
385024	3344	1680
393216	2704	1488
401408	86864	85632
409600	94592	93872
417792	7648	6032
425984	2342032	2341504
434176	2928	1808
442368	2608	1488
450560	2128	1536
458752	1552	608
466944	2368	1728
475136	2768	1616
483328	1824	1136
491520	2496	1536
499712	1904	1248
507904	1744	592
516096	1584	768
524288	4288	2416
540672	5024	3808
557056	5440	4240
573440	6096	3008
589824	5616	3360
606208	1121408	1119456
622592	1090304	1088176
638976	4640	2048
655360	4064	2256
671744	4496	2208
688128	4368	2400
704512	3648	1888
720896	3632	1648
737280	4112	2208
753664	3904	2000
770048	3712	1808
786432	4704	2448
802816	4064	2016
819200	3888	1920
835584	4224	2352
851968	4640	2688
868352	3664	1984
884736	3440	1600
901120	1856	384
917504	880	64
933888	864	112
950272	512	112
966656	336	96
983040	80	64
999424	48	48
1015808	64	64
1032192	64	64
1048576	80	80
1081344	144	144
1114112	64	64
1146880	32	32
1179648	32	32
1212416	48	48
1245184	32	32
1277952	32	32
1310720	0	0
1343488	48	48
1376256	80	80
1409024	64	64
1441792	64	64
1474560	192	192
1507328	80	80
1540096	80	80
1572864	208	208
1605632	176	176
1638400	272	272
1671168	176	176
1703936	128	128
1736704	192	192
1769472	256	256
1802240	64	64
1835008	144	144
1867776	256	256
1900544	240	240
1933312	240	240
1966080	320	320
1998848	352	352
2031616	112	112
2064384	256	256
2097152	288	288
2162688	224	224
2228224	496	496
2293760	352	352
2359296	816	816
2424832	560	560
2490368	416	416
2555904	416	416
2621440	432	432
2686976	464	464
2752512	640	640
2818048	416	416
2883584	496	496
2949120	928	928
3014656	592	592
3080192	416	416
3145728	480	480
3211264	384	384
3276800	480	480
3342336	480	480
3407872	464	464
3473408	464	464
3538944	480	480
3604480	480	480
3670016	480	480
3735552	544	544
3801088	368	368
3866624	592	592
3932160	560	560
3997696	592	592
4063232	928	928
4128768	528	528
4194304	704	704
4325376	800	800
4456448	816	816
4587520	1840	1840
4718592	3280	3280
4849664	252800	252800
4980736	3200	3200
5111808	384	384
5242880	2256	2256
5373952	832	832
5505024	1152	1152
5636096	1312	1312
5767168	1296	1296
5898240	3008	3008
6029312	3088	3088
6160384	2416	2416
6291456	1296	1296
6422528	1088	1088
6553600	3504	3504
6684672	2032	2032
6815744	3216	3216
6946816	4864	4864
7077888	4896	4896
7208960	2016	2016
7340032	1872	1872
7471104	1712	1712
7602176	1920	1920
7733248	1632	1632
7864320	1808	1808
7995392	1712	1712
8126464	1696	1696
8257536	1872	1872
8388608	4352	4352
8650752	3808	3808
8912896	4112	4112
9175040	4160	4160
9437184	3888	3888
9699328	3808	3808
9961472	3952	3952
10223616	3872	3872
10485760	3856	3856
10747904	3888	3888
11010048	4000	4000
11272192	3712	3712
11534336	3904	3904
11796480	4064	4064
12058624	3904	3904
12320768	3920	3920
12582912	3936	3936
12845056	4016	4016
13107200	4256	4256
13369344	4256	4256
13631488	4032	4032
13893632	4096	4096
14155776	4000	4000
14417920	4832	4832
14680064	4272	4272
14942208	4032	4032
15204352	4656	4656
15466496	4480	4480
15728640	4848	4848
15990784	4752	4752
16252928	4144	4144
16515072	4608	4608
16777216	8560	8560
17301504	8592	8592
17825792	8624	8624
18350080	8096	8096
18874368	8864	8864
19398656	9264	9264
19922944	8768	8768
20447232	8976	8976
20971520	8912	8912
21495808	9408	9408
22020096	9360	9360
22544384	8512	8512
23068672	8464	8464
23592960	8048	8048
24117248	8160	8160
24641536	8224	8224
25165824	8208	8208
25690112	8592	8592
26214400	8416	8416
26738688	8176	8176
27262976	8864	8864
27787264	7888	7888
28311552	8336	8336
28835840	8336	8336
29360128	8320	8320
29884416	9008	9008
30408704	8832	8832
30932992	7680	7680
31457280	8912	8912
31981568	8736	8736
32505856	7936	7936
33030144	8960	8960
33554432	16336	16336
34603008	56832	56832
35651584	26992	26992
36700160	16496	16496
37748736	17344	17344
38797312	16592	16592
39845888	17360	17360
40894464	17360	17360
41943040	19632	19632
42991616	18320	18320
44040192	18640	18640
45088768	19312	19312
46137344	18800	18800
47185920	19024	19024
48234496	19104	19104
49283072	18912	18912
50331648	18672	18672
51380224	18848	18848
52428800	20064	20064
53477376	19696	19696
54525952	18880	18880
55574528	19136	19136
56623104	18672	18672
57671680	19472	19472
58720256	19360	19360
59768832	19232	19232
60817408	18848	18848
61865984	19088	19088
62914560	18800	18800
63963136	18256	18256
65011712	18928	18928
66060288	19264	19264
67108864	42656	42656
69206016	44464	44464
71303168	43776	43776
73400320	59648	59648
75497472	43376	43376
77594624	343696	343696
79691776	80352	80352
81788928	41504	41504
83886080	37248	37248
85983232	46800	46800
88080384	38384	38384
90177536	34880	34864
92274688	26704	26704
94371840	16688	16688
96468992	14208	14208
98566144	14720	14720
100663296	13808	13808
102760448	15056	15056
104857600	15296	15296
106954752	13984	13984
109051904	14496	14496
111149056	14320	14320
113246208	14912	14912
115343360	14656	14656
117440512	14352	14352
119537664	14912	14912
121634816	16944	16944
123731968	16896	16896
125829120	17088	17072
127926272	17472	17472
130023424	14400	14400
132120576	11136	11136
134217728	21376	21376
138412032	18832	18832
142606336	18432	18432
146800640	16784	16784
150994944	70336	70336
155189248	67008	67008
159383552	63856	63856
163577856	65056	65056
167772160	54832	54832
171966464	17648	17648
176160768	16992	16992
180355072	17632	17632
184549376	17280	17280
188743680	17936	17936
192937984	17872	17872
197132288	18784	18784
201326592	19520	19520
205520896	17712	17696
209715200	10496	10496
213909504	8688	8688
218103808	7744	7744
222298112	5824	5824
226492416	3808	3808
230686720	2976	2976
234881024	3184	3184
239075328	3264	3264
243269632	3808	3808
247463936	4352	4352
251658240	2368	2368
255852544	2576	2576
260046848	2736	2736
264241152	1984	1984
268435456	3040	3040
276824064	6496	6496
285212672	20624	20624
293601280	8400	8400
301989888	5984	5984
310378496	6400	6400
318767104	4976	4976
327155712	4096	4096
335544320	65472	65472
343932928	106896	106896
352321536	112000	112000
360710144	29168	29168
369098752	31920	31920
377487360	24432	24432
385875968	23904	23904
394264576	23920	23920
402653184	23968	23968
411041792	27280	27280
419430400	73600	73600
427819008	223536	223536
436207616	24144	24144
444596224	16544	16544
452984832	16240	16240
461373440	16256	16256
469762048	33056	33056
478150656	16176	16176
486539264	16032	16032
494927872	17216	17216
503316480	1087776	1087776
511705088	1319200	1319200
520093696	1340208	1340208
528482304	1385520	1385520
536870912	1832512	1832512
553648128	96	96
570425344	96	96
587202560	192	192
603979776	0	0
620756992	0	0
637534208	0	0
654311424	0	0
671088640	0	0
687865856	0	0
704643072	0	0
721420288	0	0
738197504	0	0
754974720	0	0
771751936	0	0
788529152	0	0
805306368	0	0
822083584	0	0
838860800	0	0
855638016	0	0
872415232	0	0
889192448	0	0
905969664	0	0
922746880	0	0
939524096	0	0
956301312	0	0
973078528	0	0
989855744	0	0
1006632960	0	0
1023410176	0	0
1040187392	0	0
1056964608	0	0
1073741824	0	0
1107296256	0	0
1140850688	0	0
1174405120	0	0
1207959552	0	0
1241513984	0	0
1275068416	0	0
1308622848	0	0
1342177280	0	0
1375731712	0	0
1409286144	0	0
1442840576	0	0
1476395008	0	0
1509949440	0	0
1543503872	0	0
1577058304	0	0
1610612736	0	0
1644167168	0	0
1677721600	0	0
1711276032	0	0
1744830464	0	0
1778384896	0	0
1811939328	0	0
1845493760	0	0
1879048192	0	0
1912602624	0	0
1946157056	0	0
1979711488	0	0
2013265920	0	0
2046820352	0	0
2080374784	0	0
2113929216	0	0
2147483648	0	0
2214592512	0	0
2281701376	0	0
2348810240	0	0
2415919104	0	0
2483027968	0	0
2550136832	0	0
2617245696	0	0
2684354560	0	0
2751463424	0	0
2818572288	0	0
2885681152	0	0
2952790016	0	0
3019898880	0	0
3087007744	0	0
3154116608	0	0
3221225472	0	0
3288334336	0	0
3355443200	0	0
3422552064	0	0
3489660928	0	0
3556769792	0	0
3623878656	0	0
3690987520	0	0
3758096384	0	0
3825205248	0	0
3892314112	0	0
3959422976	0	0
4026531840	0	0
4093640704	0	0
4160749568	0	0
4227858432	0	0
~~~~~~~~~~Reuse Distance Profiler output end~~~~~~~~~~

DRAM Statistics
 CHANNEL 0
 RQ ROW_BUFFER_HIT:      67043  ROW_BUFFER_MISS:   18013847
 DBUS AVG_CONGESTED_CYCLE:    3.98422
 WQ ROW_BUFFER_HIT:     557557  ROW_BUFFER_MISS:    8086403  FULL:          0


CPU 0 Branch Prediction Accuracy: 97.7945% MPKI: 0.375903 Average ROB Occupancy at Mispredict: 345.532
Branch type MPKI
BRANCH_DIRECT_JUMP: 2.13333e-05
BRANCH_INDIRECT: 6.66667e-07
BRANCH_CONDITIONAL: 0.375765
BRANCH_DIRECT_CALL: 6e-05
BRANCH_INDIRECT_CALL: 0
BRANCH_RETURN: 5.53333e-05

