
*** ChampSim Multicore Out-of-Order Simulator ***

Warmup Instructions: 500000000
Simulation Instructions: 1500000000
Number of CPUs: 1
Off-chip DRAM Size: 4 GiB Channels: 1 Width: 64-bit Data Rate: 3200 MT/s

VirtualMemory physical capacity: 8588881920 num_ppages: 2096895
VirtualMemory page size: 4096 log2_page_size: 12

CPU 0 runs traces/462.libquantum-714B.champsimtrace.xz
CPU 0 Bimodal branch predictor
Basic BTB sets: 1024 ways: 8 indirect buffer size: 4096 RAS size: 64
Initializing LRU.
Initializing LRU.
Initializing LRU.
Initializing LRU.
Initializing rdLRU.
Initializing LRU.
Initializing LRU.
Heartbeat CPU 0 instructions: 10000002 cycles: 3002214 heartbeat IPC: 3.33088 cumulative IPC: 3.33088 (Simulation time: 0 hr 0 min 32 sec) 
Heartbeat CPU 0 instructions: 20000001 cycles: 7287931 heartbeat IPC: 2.33333 cumulative IPC: 2.74426 (Simulation time: 0 hr 1 min 51 sec) 
Heartbeat CPU 0 instructions: 30000003 cycles: 10466980 heartbeat IPC: 3.1456 cumulative IPC: 2.86616 (Simulation time: 0 hr 2 min 39 sec) 
Heartbeat CPU 0 instructions: 40000002 cycles: 13190384 heartbeat IPC: 3.67188 cumulative IPC: 3.03251 (Simulation time: 0 hr 3 min 18 sec) 
Heartbeat CPU 0 instructions: 50000000 cycles: 15915306 heartbeat IPC: 3.66983 cumulative IPC: 3.14163 (Simulation time: 0 hr 3 min 56 sec) 
Heartbeat CPU 0 instructions: 60000002 cycles: 18642581 heartbeat IPC: 3.66666 cumulative IPC: 3.21844 (Simulation time: 0 hr 4 min 34 sec) 
Heartbeat CPU 0 instructions: 70000000 cycles: 21512119 heartbeat IPC: 3.48488 cumulative IPC: 3.25398 (Simulation time: 0 hr 5 min 15 sec) 
Heartbeat CPU 0 instructions: 80000004 cycles: 25797836 heartbeat IPC: 2.33333 cumulative IPC: 3.10104 (Simulation time: 0 hr 6 min 18 sec) 
Heartbeat CPU 0 instructions: 90000004 cycles: 29109754 heartbeat IPC: 3.0194 cumulative IPC: 3.09175 (Simulation time: 0 hr 7 min 4 sec) 
Heartbeat CPU 0 instructions: 100000003 cycles: 31833157 heartbeat IPC: 3.67188 cumulative IPC: 3.14138 (Simulation time: 0 hr 7 min 40 sec) 
Heartbeat CPU 0 instructions: 110000004 cycles: 34555331 heartbeat IPC: 3.67353 cumulative IPC: 3.1833 (Simulation time: 0 hr 8 min 16 sec) 
Heartbeat CPU 0 instructions: 120000003 cycles: 37274880 heartbeat IPC: 3.67708 cumulative IPC: 3.21933 (Simulation time: 0 hr 8 min 53 sec) 
Heartbeat CPU 0 instructions: 130000002 cycles: 39994424 heartbeat IPC: 3.67709 cumulative IPC: 3.25045 (Simulation time: 0 hr 9 min 30 sec) 
Heartbeat CPU 0 instructions: 140000002 cycles: 44279645 heartbeat IPC: 2.3336 cumulative IPC: 3.16172 (Simulation time: 0 hr 10 min 49 sec) 
Heartbeat CPU 0 instructions: 150000004 cycles: 47734678 heartbeat IPC: 2.89433 cumulative IPC: 3.14237 (Simulation time: 0 hr 11 min 54 sec) 
Heartbeat CPU 0 instructions: 160000004 cycles: 50458082 heartbeat IPC: 3.67188 cumulative IPC: 3.17095 (Simulation time: 0 hr 12 min 35 sec) 
Heartbeat CPU 0 instructions: 170000000 cycles: 53179757 heartbeat IPC: 3.67421 cumulative IPC: 3.19671 (Simulation time: 0 hr 13 min 32 sec) 
Heartbeat CPU 0 instructions: 180000003 cycles: 55895463 heartbeat IPC: 3.68228 cumulative IPC: 3.2203 (Simulation time: 0 hr 14 min 9 sec) 
Heartbeat CPU 0 instructions: 190000002 cycles: 58611159 heartbeat IPC: 3.6823 cumulative IPC: 3.2417 (Simulation time: 0 hr 14 min 47 sec) 
Heartbeat CPU 0 instructions: 200000003 cycles: 62747418 heartbeat IPC: 2.41764 cumulative IPC: 3.18738 (Simulation time: 0 hr 16 min 10 sec) 
Heartbeat CPU 0 instructions: 210000000 cycles: 66343968 heartbeat IPC: 2.78044 cumulative IPC: 3.16532 (Simulation time: 0 hr 17 min 23 sec) 
Heartbeat CPU 0 instructions: 220000000 cycles: 69052008 heartbeat IPC: 3.69271 cumulative IPC: 3.186 (Simulation time: 0 hr 18 min 12 sec) 
Heartbeat CPU 0 instructions: 230000002 cycles: 71939155 heartbeat IPC: 3.46363 cumulative IPC: 3.19715 (Simulation time: 0 hr 18 min 54 sec) 
Heartbeat CPU 0 instructions: 240000003 cycles: 76224869 heartbeat IPC: 2.33333 cumulative IPC: 3.14858 (Simulation time: 0 hr 19 min 57 sec) 
Heartbeat CPU 0 instructions: 250000001 cycles: 79492129 heartbeat IPC: 3.06067 cumulative IPC: 3.14497 (Simulation time: 0 hr 20 min 45 sec) 
Heartbeat CPU 0 instructions: 260000001 cycles: 82200169 heartbeat IPC: 3.69271 cumulative IPC: 3.16301 (Simulation time: 0 hr 21 min 23 sec) 
Heartbeat CPU 0 instructions: 270000001 cycles: 84841095 heartbeat IPC: 3.78655 cumulative IPC: 3.18242 (Simulation time: 0 hr 22 min 0 sec) 
Heartbeat CPU 0 instructions: 280000001 cycles: 87341095 heartbeat IPC: 4 cumulative IPC: 3.20582 (Simulation time: 0 hr 22 min 32 sec) 
Heartbeat CPU 0 instructions: 290000001 cycles: 89841095 heartbeat IPC: 4 cumulative IPC: 3.22792 (Simulation time: 0 hr 23 min 9 sec) 
Heartbeat CPU 0 instructions: 300000000 cycles: 93703675 heartbeat IPC: 2.58894 cumulative IPC: 3.20158 (Simulation time: 0 hr 24 min 9 sec) 
Heartbeat CPU 0 instructions: 310000001 cycles: 97518266 heartbeat IPC: 2.62151 cumulative IPC: 3.17889 (Simulation time: 0 hr 25 min 5 sec) 
Heartbeat CPU 0 instructions: 320000004 cycles: 100207342 heartbeat IPC: 3.71875 cumulative IPC: 3.19338 (Simulation time: 0 hr 25 min 42 sec) 
Heartbeat CPU 0 instructions: 330000003 cycles: 102896419 heartbeat IPC: 3.71875 cumulative IPC: 3.20711 (Simulation time: 0 hr 26 min 28 sec) 
Heartbeat CPU 0 instructions: 340000000 cycles: 105404781 heartbeat IPC: 3.98666 cumulative IPC: 3.22566 (Simulation time: 0 hr 27 min 0 sec) 
Heartbeat CPU 0 instructions: 350000000 cycles: 107904781 heartbeat IPC: 4 cumulative IPC: 3.2436 (Simulation time: 0 hr 27 min 32 sec) 
Heartbeat CPU 0 instructions: 360000001 cycles: 111053752 heartbeat IPC: 3.17564 cumulative IPC: 3.24167 (Simulation time: 0 hr 28 min 26 sec) 
Heartbeat CPU 0 instructions: 370000000 cycles: 115339466 heartbeat IPC: 2.33333 cumulative IPC: 3.20792 (Simulation time: 0 hr 29 min 33 sec) 
Heartbeat CPU 0 instructions: 380000002 cycles: 118286464 heartbeat IPC: 3.39328 cumulative IPC: 3.21254 (Simulation time: 0 hr 30 min 21 sec) 
Heartbeat CPU 0 instructions: 390000002 cycles: 121077164 heartbeat IPC: 3.58333 cumulative IPC: 3.22109 (Simulation time: 0 hr 31 min 9 sec) 
Heartbeat CPU 0 instructions: 400000000 cycles: 124826127 heartbeat IPC: 2.6674 cumulative IPC: 3.20446 (Simulation time: 0 hr 32 min 8 sec) 
Heartbeat CPU 0 instructions: 410000004 cycles: 128826703 heartbeat IPC: 2.49964 cumulative IPC: 3.18257 (Simulation time: 0 hr 33 min 5 sec) 
Heartbeat CPU 0 instructions: 420000001 cycles: 131464064 heartbeat IPC: 3.79167 cumulative IPC: 3.19479 (Simulation time: 0 hr 33 min 46 sec) 
Heartbeat CPU 0 instructions: 430000004 cycles: 134101429 heartbeat IPC: 3.79166 cumulative IPC: 3.20653 (Simulation time: 0 hr 34 min 26 sec) 
Heartbeat CPU 0 instructions: 440000002 cycles: 136730247 heartbeat IPC: 3.80399 cumulative IPC: 3.21802 (Simulation time: 0 hr 35 min 2 sec) 
Heartbeat CPU 0 instructions: 450000001 cycles: 139356785 heartbeat IPC: 3.80729 cumulative IPC: 3.22912 (Simulation time: 0 hr 35 min 56 sec) 
Heartbeat CPU 0 instructions: 460000001 cycles: 142225102 heartbeat IPC: 3.48637 cumulative IPC: 3.23431 (Simulation time: 0 hr 36 min 37 sec) 
Heartbeat CPU 0 instructions: 470000000 cycles: 145468346 heartbeat IPC: 3.08333 cumulative IPC: 3.23094 (Simulation time: 0 hr 37 min 27 sec) 
Heartbeat CPU 0 instructions: 480000000 cycles: 149182978 heartbeat IPC: 2.69206 cumulative IPC: 3.21753 (Simulation time: 0 hr 38 min 29 sec) 
Heartbeat CPU 0 instructions: 490000003 cycles: 153468694 heartbeat IPC: 2.33333 cumulative IPC: 3.19283 (Simulation time: 0 hr 39 min 37 sec) 
Heartbeat CPU 0 instructions: 500000002 cycles: 156282984 heartbeat IPC: 3.55329 cumulative IPC: 3.19932 (Simulation time: 0 hr 40 min 39 sec) 

Warmup complete CPU 0 instructions: 500000002 cycles: 156282984 (Simulation time: 0 hr 40 min 39 sec) 

Heartbeat CPU 0 instructions: 510000001 cycles: 189114068 heartbeat IPC: 0.304589 cumulative IPC: 0.304589 (Simulation time: 0 hr 42 min 25 sec) 
Heartbeat CPU 0 instructions: 520000002 cycles: 214256300 heartbeat IPC: 0.397737 cumulative IPC: 0.344986 (Simulation time: 0 hr 46 min 0 sec) 
Heartbeat CPU 0 instructions: 530000002 cycles: 238764813 heartbeat IPC: 0.408021 cumulative IPC: 0.363716 (Simulation time: 0 hr 48 min 51 sec) 
Heartbeat CPU 0 instructions: 540000000 cycles: 268046538 heartbeat IPC: 0.34151 cumulative IPC: 0.357898 (Simulation time: 0 hr 50 min 5 sec) 
Heartbeat CPU 0 instructions: 550000001 cycles: 297319205 heartbeat IPC: 0.341616 cumulative IPC: 0.354519 (Simulation time: 0 hr 51 min 19 sec) 
Heartbeat CPU 0 instructions: 560000000 cycles: 319179203 heartbeat IPC: 0.457457 cumulative IPC: 0.368333 (Simulation time: 0 hr 54 min 2 sec) 
Heartbeat CPU 0 instructions: 570000003 cycles: 343661139 heartbeat IPC: 0.408465 cumulative IPC: 0.373576 (Simulation time: 0 hr 56 min 32 sec) 
Heartbeat CPU 0 instructions: 580000002 cycles: 370304350 heartbeat IPC: 0.37533 cumulative IPC: 0.373794 (Simulation time: 0 hr 57 min 45 sec) 
Heartbeat CPU 0 instructions: 590000003 cycles: 396056573 heartbeat IPC: 0.388316 cumulative IPC: 0.375354 (Simulation time: 0 hr 58 min 58 sec) 
Heartbeat CPU 0 instructions: 600000003 cycles: 410861042 heartbeat IPC: 0.675472 cumulative IPC: 0.392807 (Simulation time: 1 hr 0 min 0 sec) 
Heartbeat CPU 0 instructions: 610000002 cycles: 425384774 heartbeat IPC: 0.688528 cumulative IPC: 0.408767 (Simulation time: 1 hr 1 min 0 sec) 
Heartbeat CPU 0 instructions: 620000000 cycles: 444330715 heartbeat IPC: 0.527817 cumulative IPC: 0.416598 (Simulation time: 1 hr 3 min 18 sec) 
Heartbeat CPU 0 instructions: 630000000 cycles: 466527230 heartbeat IPC: 0.450521 cumulative IPC: 0.419025 (Simulation time: 1 hr 6 min 13 sec) 
Heartbeat CPU 0 instructions: 640000003 cycles: 486690790 heartbeat IPC: 0.495944 cumulative IPC: 0.423719 (Simulation time: 1 hr 7 min 20 sec) 
Heartbeat CPU 0 instructions: 650000002 cycles: 506861329 heartbeat IPC: 0.495773 cumulative IPC: 0.427864 (Simulation time: 1 hr 8 min 27 sec) 
Heartbeat CPU 0 instructions: 660000002 cycles: 528220838 heartbeat IPC: 0.468176 cumulative IPC: 0.430179 (Simulation time: 1 hr 11 min 14 sec) 
Heartbeat CPU 0 instructions: 670000000 cycles: 546008901 heartbeat IPC: 0.562175 cumulative IPC: 0.436204 (Simulation time: 1 hr 13 min 47 sec) 
Heartbeat CPU 0 instructions: 680000003 cycles: 556942676 heartbeat IPC: 0.914597 cumulative IPC: 0.449259 (Simulation time: 1 hr 14 min 47 sec) 
Heartbeat CPU 0 instructions: 690000001 cycles: 568579306 heartbeat IPC: 0.859355 cumulative IPC: 0.460834 (Simulation time: 1 hr 16 min 0 sec) 
Heartbeat CPU 0 instructions: 700000000 cycles: 590227640 heartbeat IPC: 0.461929 cumulative IPC: 0.460888 (Simulation time: 1 hr 18 min 49 sec) 
Heartbeat CPU 0 instructions: 710000002 cycles: 602031679 heartbeat IPC: 0.847168 cumulative IPC: 0.471117 (Simulation time: 1 hr 20 min 26 sec) 
Heartbeat CPU 0 instructions: 720000000 cycles: 607692654 heartbeat IPC: 1.76648 cumulative IPC: 0.487362 (Simulation time: 1 hr 21 min 22 sec) 
Heartbeat CPU 0 instructions: 730000002 cycles: 613362707 heartbeat IPC: 1.76365 cumulative IPC: 0.503195 (Simulation time: 1 hr 22 min 20 sec) 
Heartbeat CPU 0 instructions: 740000002 cycles: 618976894 heartbeat IPC: 1.7812 cumulative IPC: 0.518701 (Simulation time: 1 hr 23 min 16 sec) 
Heartbeat CPU 0 instructions: 750000003 cycles: 624850741 heartbeat IPC: 1.70246 cumulative IPC: 0.533541 (Simulation time: 1 hr 24 min 15 sec) 
Heartbeat CPU 0 instructions: 760000001 cycles: 647465185 heartbeat IPC: 0.442195 cumulative IPC: 0.529335 (Simulation time: 1 hr 27 min 51 sec) 
Heartbeat CPU 0 instructions: 770000001 cycles: 659983468 heartbeat IPC: 0.798832 cumulative IPC: 0.536033 (Simulation time: 1 hr 29 min 42 sec) 
Heartbeat CPU 0 instructions: 780000003 cycles: 663791982 heartbeat IPC: 2.6257 cumulative IPC: 0.551714 (Simulation time: 1 hr 30 min 36 sec) 
Heartbeat CPU 0 instructions: 790000000 cycles: 671936613 heartbeat IPC: 1.2278 cumulative IPC: 0.562393 (Simulation time: 1 hr 31 min 59 sec) 
Heartbeat CPU 0 instructions: 800000004 cycles: 694562648 heartbeat IPC: 0.441969 cumulative IPC: 0.557331 (Simulation time: 1 hr 34 min 54 sec) 
Heartbeat CPU 0 instructions: 810000001 cycles: 704220465 heartbeat IPC: 1.03543 cumulative IPC: 0.565758 (Simulation time: 1 hr 36 min 27 sec) 
Heartbeat CPU 0 instructions: 820000002 cycles: 709750169 heartbeat IPC: 1.80842 cumulative IPC: 0.578173 (Simulation time: 1 hr 37 min 23 sec) 
Heartbeat CPU 0 instructions: 830000000 cycles: 715316811 heartbeat IPC: 1.79641 cumulative IPC: 0.590304 (Simulation time: 1 hr 38 min 19 sec) 
Heartbeat CPU 0 instructions: 840000004 cycles: 720811424 heartbeat IPC: 1.81997 cumulative IPC: 0.602273 (Simulation time: 1 hr 39 min 15 sec) 
Heartbeat CPU 0 instructions: 850000001 cycles: 728831360 heartbeat IPC: 1.24689 cumulative IPC: 0.611302 (Simulation time: 1 hr 40 min 30 sec) 
Heartbeat CPU 0 instructions: 860000003 cycles: 751387500 heartbeat IPC: 0.443338 cumulative IPC: 0.604936 (Simulation time: 1 hr 43 min 29 sec) 
Heartbeat CPU 0 instructions: 870000003 cycles: 761195961 heartbeat IPC: 1.01953 cumulative IPC: 0.611658 (Simulation time: 1 hr 45 min 9 sec) 
Heartbeat CPU 0 instructions: 880000000 cycles: 765006541 heartbeat IPC: 2.62427 cumulative IPC: 0.624257 (Simulation time: 1 hr 46 min 4 sec) 
Heartbeat CPU 0 instructions: 890000003 cycles: 769612297 heartbeat IPC: 2.1712 cumulative IPC: 0.635874 (Simulation time: 1 hr 46 min 59 sec) 
Heartbeat CPU 0 instructions: 900000004 cycles: 775136518 heartbeat IPC: 1.81021 cumulative IPC: 0.646357 (Simulation time: 1 hr 47 min 56 sec) 
Heartbeat CPU 0 instructions: 910000002 cycles: 781672656 heartbeat IPC: 1.52996 cumulative IPC: 0.655591 (Simulation time: 1 hr 49 min 1 sec) 
Heartbeat CPU 0 instructions: 920000000 cycles: 804283662 heartbeat IPC: 0.442262 cumulative IPC: 0.648147 (Simulation time: 1 hr 51 min 57 sec) 
Heartbeat CPU 0 instructions: 930000000 cycles: 815810861 heartbeat IPC: 0.867513 cumulative IPC: 0.651982 (Simulation time: 1 hr 53 min 41 sec) 
Heartbeat CPU 0 instructions: 940000004 cycles: 819620103 heartbeat IPC: 2.6252 cumulative IPC: 0.663313 (Simulation time: 1 hr 54 min 35 sec) 
Heartbeat CPU 0 instructions: 950000004 cycles: 828725077 heartbeat IPC: 1.0983 cumulative IPC: 0.669203 (Simulation time: 1 hr 56 min 7 sec) 
Heartbeat CPU 0 instructions: 960000003 cycles: 851249788 heartbeat IPC: 0.443957 cumulative IPC: 0.661902 (Simulation time: 1 hr 59 min 5 sec) 
Heartbeat CPU 0 instructions: 970000002 cycles: 858455598 heartbeat IPC: 1.38777 cumulative IPC: 0.669351 (Simulation time: 2 hr 0 min 28 sec) 
Heartbeat CPU 0 instructions: 980000004 cycles: 862266516 heartbeat IPC: 2.62404 cumulative IPC: 0.679903 (Simulation time: 2 hr 1 min 25 sec) 
Heartbeat CPU 0 instructions: 990000000 cycles: 877191715 heartbeat IPC: 0.670008 cumulative IPC: 0.679698 (Simulation time: 2 hr 2 min 23 sec) 
Heartbeat CPU 0 instructions: 1000000002 cycles: 907604804 heartbeat IPC: 0.328806 cumulative IPC: 0.665494 (Simulation time: 2 hr 3 min 34 sec) 
Heartbeat CPU 0 instructions: 1010000004 cycles: 934921089 heartbeat IPC: 0.366082 cumulative IPC: 0.65499 (Simulation time: 2 hr 4 min 47 sec) 
Heartbeat CPU 0 instructions: 1020000001 cycles: 938729220 heartbeat IPC: 2.62596 cumulative IPC: 0.664582 (Simulation time: 2 hr 5 min 41 sec) 
Heartbeat CPU 0 instructions: 1030000003 cycles: 942531488 heartbeat IPC: 2.63001 cumulative IPC: 0.674087 (Simulation time: 2 hr 6 min 34 sec) 
Heartbeat CPU 0 instructions: 1040000003 cycles: 961781940 heartbeat IPC: 0.519468 cumulative IPC: 0.670392 (Simulation time: 2 hr 9 min 10 sec) 
Heartbeat CPU 0 instructions: 1050000003 cycles: 977556953 heartbeat IPC: 0.633914 cumulative IPC: 0.669691 (Simulation time: 2 hr 11 min 19 sec) 
Heartbeat CPU 0 instructions: 1060000001 cycles: 981362813 heartbeat IPC: 2.62753 cumulative IPC: 0.678722 (Simulation time: 2 hr 12 min 12 sec) 
Heartbeat CPU 0 instructions: 1070000001 cycles: 986036605 heartbeat IPC: 2.13959 cumulative IPC: 0.686951 (Simulation time: 2 hr 13 min 11 sec) 
Heartbeat CPU 0 instructions: 1080000003 cycles: 1008626646 heartbeat IPC: 0.442673 cumulative IPC: 0.680477 (Simulation time: 2 hr 16 min 3 sec) 
Heartbeat CPU 0 instructions: 1090000003 cycles: 1021456372 heartbeat IPC: 0.77944 cumulative IPC: 0.681944 (Simulation time: 2 hr 17 min 47 sec) 
Heartbeat CPU 0 instructions: 1100000002 cycles: 1026999412 heartbeat IPC: 1.80406 cumulative IPC: 0.689088 (Simulation time: 2 hr 18 min 43 sec) 
Heartbeat CPU 0 instructions: 1110000003 cycles: 1032138339 heartbeat IPC: 1.94593 cumulative IPC: 0.696462 (Simulation time: 2 hr 19 min 39 sec) 
Heartbeat CPU 0 instructions: 1120000000 cycles: 1035940170 heartbeat IPC: 2.63031 cumulative IPC: 0.70482 (Simulation time: 2 hr 20 min 31 sec) 
Heartbeat CPU 0 instructions: 1130000002 cycles: 1039798433 heartbeat IPC: 2.59184 cumulative IPC: 0.713061 (Simulation time: 2 hr 21 min 24 sec) 
Heartbeat CPU 0 instructions: 1140000001 cycles: 1061511478 heartbeat IPC: 0.460553 cumulative IPC: 0.707004 (Simulation time: 2 hr 24 min 13 sec) 
Heartbeat CPU 0 instructions: 1150000003 cycles: 1075684746 heartbeat IPC: 0.705554 cumulative IPC: 0.706981 (Simulation time: 2 hr 26 min 6 sec) 
Heartbeat CPU 0 instructions: 1160000003 cycles: 1081367600 heartbeat IPC: 1.75968 cumulative IPC: 0.713448 (Simulation time: 2 hr 27 min 1 sec) 
Heartbeat CPU 0 instructions: 1170000002 cycles: 1087035240 heartbeat IPC: 1.7644 cumulative IPC: 0.719848 (Simulation time: 2 hr 27 min 57 sec) 
Heartbeat CPU 0 instructions: 1180000000 cycles: 1092571917 heartbeat IPC: 1.80614 cumulative IPC: 0.726272 (Simulation time: 2 hr 28 min 51 sec) 
Heartbeat CPU 0 instructions: 1190000004 cycles: 1098116229 heartbeat IPC: 1.80365 cumulative IPC: 0.732614 (Simulation time: 2 hr 29 min 46 sec) 
Heartbeat CPU 0 instructions: 1200000001 cycles: 1118542096 heartbeat IPC: 0.489575 cumulative IPC: 0.727455 (Simulation time: 2 hr 32 min 26 sec) 
Heartbeat CPU 0 instructions: 1210000002 cycles: 1133358367 heartbeat IPC: 0.674934 cumulative IPC: 0.726658 (Simulation time: 2 hr 34 min 27 sec) 
Heartbeat CPU 0 instructions: 1220000000 cycles: 1137169674 heartbeat IPC: 2.62377 cumulative IPC: 0.73403 (Simulation time: 2 hr 35 min 19 sec) 
Heartbeat CPU 0 instructions: 1230000003 cycles: 1142791783 heartbeat IPC: 1.77869 cumulative IPC: 0.739983 (Simulation time: 2 hr 36 min 24 sec) 
Heartbeat CPU 0 instructions: 1240000002 cycles: 1165362909 heartbeat IPC: 0.443044 cumulative IPC: 0.733341 (Simulation time: 2 hr 39 min 18 sec) 
Heartbeat CPU 0 instructions: 1250000004 cycles: 1177165165 heartbeat IPC: 0.847296 cumulative IPC: 0.734659 (Simulation time: 2 hr 40 min 54 sec) 
Heartbeat CPU 0 instructions: 1260000002 cycles: 1182858404 heartbeat IPC: 1.75647 cumulative IPC: 0.740326 (Simulation time: 2 hr 41 min 49 sec) 
Heartbeat CPU 0 instructions: 1270000000 cycles: 1188503414 heartbeat IPC: 1.77148 cumulative IPC: 0.745965 (Simulation time: 2 hr 42 min 45 sec) 
Heartbeat CPU 0 instructions: 1280000003 cycles: 1194040036 heartbeat IPC: 1.80616 cumulative IPC: 0.751621 (Simulation time: 2 hr 43 min 40 sec) 
Heartbeat CPU 0 instructions: 1290000002 cycles: 1199868659 heartbeat IPC: 1.71567 cumulative IPC: 0.757005 (Simulation time: 2 hr 44 min 37 sec) 
Heartbeat CPU 0 instructions: 1300000004 cycles: 1222322656 heartbeat IPC: 0.445355 cumulative IPC: 0.750441 (Simulation time: 2 hr 47 min 29 sec) 
Heartbeat CPU 0 instructions: 1310000003 cycles: 1238419172 heartbeat IPC: 0.621252 cumulative IPC: 0.748519 (Simulation time: 2 hr 49 min 14 sec) 
Heartbeat CPU 0 instructions: 1320000004 cycles: 1248976443 heartbeat IPC: 0.947215 cumulative IPC: 0.750439 (Simulation time: 2 hr 50 min 11 sec) 
Heartbeat CPU 0 instructions: 1330000002 cycles: 1261684356 heartbeat IPC: 0.786911 cumulative IPC: 0.750858 (Simulation time: 2 hr 51 min 35 sec) 
Heartbeat CPU 0 instructions: 1340000001 cycles: 1283341008 heartbeat IPC: 0.461752 cumulative IPC: 0.745303 (Simulation time: 2 hr 54 min 22 sec) 
Heartbeat CPU 0 instructions: 1350000004 cycles: 1304426405 heartbeat IPC: 0.474262 cumulative IPC: 0.740326 (Simulation time: 2 hr 55 min 47 sec) 
Heartbeat CPU 0 instructions: 1360000000 cycles: 1324604451 heartbeat IPC: 0.495588 cumulative IPC: 0.736099 (Simulation time: 2 hr 56 min 52 sec) 
Heartbeat CPU 0 instructions: 1370000003 cycles: 1344773025 heartbeat IPC: 0.495821 cumulative IPC: 0.732021 (Simulation time: 2 hr 58 min 44 sec) 
Heartbeat CPU 0 instructions: 1380000000 cycles: 1366959786 heartbeat IPC: 0.450719 cumulative IPC: 0.726866 (Simulation time: 3 hr 1 min 33 sec) 
Heartbeat CPU 0 instructions: 1390000000 cycles: 1382373517 heartbeat IPC: 0.648772 cumulative IPC: 0.725884 (Simulation time: 3 hr 2 min 38 sec) 
Heartbeat CPU 0 instructions: 1400000000 cycles: 1396915066 heartbeat IPC: 0.687685 cumulative IPC: 0.725437 (Simulation time: 3 hr 3 min 38 sec) 
Heartbeat CPU 0 instructions: 1410000003 cycles: 1419610712 heartbeat IPC: 0.440613 cumulative IPC: 0.72032 (Simulation time: 3 hr 4 min 45 sec) 
Heartbeat CPU 0 instructions: 1420000004 cycles: 1446385847 heartbeat IPC: 0.373481 cumulative IPC: 0.713121 (Simulation time: 3 hr 5 min 55 sec) 
Heartbeat CPU 0 instructions: 1430000003 cycles: 1470380368 heartbeat IPC: 0.416762 cumulative IPC: 0.70771 (Simulation time: 3 hr 7 min 37 sec) 
Heartbeat CPU 0 instructions: 1440000002 cycles: 1492285246 heartbeat IPC: 0.456519 cumulative IPC: 0.703592 (Simulation time: 3 hr 10 min 25 sec) 
Heartbeat CPU 0 instructions: 1450000004 cycles: 1521363516 heartbeat IPC: 0.343899 cumulative IPC: 0.69593 (Simulation time: 3 hr 11 min 47 sec) 
Heartbeat CPU 0 instructions: 1460000003 cycles: 1550694316 heartbeat IPC: 0.340939 cumulative IPC: 0.688463 (Simulation time: 3 hr 12 min 57 sec) 
Heartbeat CPU 0 instructions: 1470000002 cycles: 1575469145 heartbeat IPC: 0.403635 cumulative IPC: 0.68349 (Simulation time: 3 hr 14 min 57 sec) 
Heartbeat CPU 0 instructions: 1480000000 cycles: 1598161100 heartbeat IPC: 0.440685 cumulative IPC: 0.679669 (Simulation time: 3 hr 17 min 40 sec) 
Heartbeat CPU 0 instructions: 1490000000 cycles: 1631037367 heartbeat IPC: 0.304171 cumulative IPC: 0.671298 (Simulation time: 3 hr 19 min 12 sec) 
Heartbeat CPU 0 instructions: 1500000000 cycles: 1663895511 heartbeat IPC: 0.304339 cumulative IPC: 0.6633 (Simulation time: 3 hr 20 min 43 sec) 
Heartbeat CPU 0 instructions: 1510000004 cycles: 1688154088 heartbeat IPC: 0.412225 cumulative IPC: 0.659324 (Simulation time: 3 hr 23 min 21 sec) 
Heartbeat CPU 0 instructions: 1520000000 cycles: 1715399020 heartbeat IPC: 0.367041 cumulative IPC: 0.654217 (Simulation time: 3 hr 25 min 41 sec) 
Heartbeat CPU 0 instructions: 1530000003 cycles: 1751094003 heartbeat IPC: 0.280151 cumulative IPC: 0.645845 (Simulation time: 3 hr 27 min 2 sec) 
Heartbeat CPU 0 instructions: 1540000003 cycles: 1780315720 heartbeat IPC: 0.342211 cumulative IPC: 0.640381 (Simulation time: 3 hr 28 min 56 sec) 
Heartbeat CPU 0 instructions: 1550000004 cycles: 1802804257 heartbeat IPC: 0.444671 cumulative IPC: 0.637708 (Simulation time: 3 hr 31 min 47 sec) 
Heartbeat CPU 0 instructions: 1560000003 cycles: 1816434343 heartbeat IPC: 0.733671 cumulative IPC: 0.638496 (Simulation time: 3 hr 32 min 59 sec) 
Heartbeat CPU 0 instructions: 1570000004 cycles: 1828549729 heartbeat IPC: 0.825397 cumulative IPC: 0.63985 (Simulation time: 3 hr 34 min 1 sec) 
Heartbeat CPU 0 instructions: 1580000000 cycles: 1835802593 heartbeat IPC: 1.37877 cumulative IPC: 0.643041 (Simulation time: 3 hr 34 min 59 sec) 
Heartbeat CPU 0 instructions: 1590000003 cycles: 1839606193 heartbeat IPC: 2.62909 cumulative IPC: 0.647529 (Simulation time: 3 hr 35 min 51 sec) 
Heartbeat CPU 0 instructions: 1600000001 cycles: 1845807439 heartbeat IPC: 1.61258 cumulative IPC: 0.651071 (Simulation time: 3 hr 36 min 45 sec) 
Heartbeat CPU 0 instructions: 1610000002 cycles: 1858045327 heartbeat IPC: 0.817135 cumulative IPC: 0.652265 (Simulation time: 3 hr 37 min 48 sec) 
Heartbeat CPU 0 instructions: 1620000004 cycles: 1870381078 heartbeat IPC: 0.810652 cumulative IPC: 0.653405 (Simulation time: 3 hr 38 min 50 sec) 
Heartbeat CPU 0 instructions: 1630000000 cycles: 1874499529 heartbeat IPC: 2.4281 cumulative IPC: 0.657659 (Simulation time: 3 hr 39 min 44 sec) 
Heartbeat CPU 0 instructions: 1640000004 cycles: 1878296837 heartbeat IPC: 2.63345 cumulative IPC: 0.662016 (Simulation time: 3 hr 40 min 36 sec) 
Heartbeat CPU 0 instructions: 1650000000 cycles: 1887661249 heartbeat IPC: 1.06787 cumulative IPC: 0.664211 (Simulation time: 3 hr 41 min 34 sec) 
Heartbeat CPU 0 instructions: 1660000001 cycles: 1899992421 heartbeat IPC: 0.810953 cumulative IPC: 0.665248 (Simulation time: 3 hr 42 min 37 sec) 
Heartbeat CPU 0 instructions: 1670000000 cycles: 1910727956 heartbeat IPC: 0.931486 cumulative IPC: 0.666878 (Simulation time: 3 hr 43 min 39 sec) 
Heartbeat CPU 0 instructions: 1680000000 cycles: 1918623650 heartbeat IPC: 1.26651 cumulative IPC: 0.669564 (Simulation time: 3 hr 44 min 37 sec) 
Heartbeat CPU 0 instructions: 1690000000 cycles: 1927702264 heartbeat IPC: 1.10149 cumulative IPC: 0.671778 (Simulation time: 3 hr 45 min 35 sec) 
Heartbeat CPU 0 instructions: 1700000000 cycles: 1967942889 heartbeat IPC: 0.248505 cumulative IPC: 0.662376 (Simulation time: 3 hr 46 min 56 sec) 
Heartbeat CPU 0 instructions: 1710000000 cycles: 2006665111 heartbeat IPC: 0.25825 cumulative IPC: 0.653919 (Simulation time: 3 hr 48 min 20 sec) 
Heartbeat CPU 0 instructions: 1720000002 cycles: 2028530791 heartbeat IPC: 0.457338 cumulative IPC: 0.651623 (Simulation time: 3 hr 51 min 8 sec) 
Heartbeat CPU 0 instructions: 1730000001 cycles: 2057382207 heartbeat IPC: 0.346603 cumulative IPC: 0.646994 (Simulation time: 3 hr 52 min 59 sec) 
Heartbeat CPU 0 instructions: 1740000000 cycles: 2090127502 heartbeat IPC: 0.305387 cumulative IPC: 0.64121 (Simulation time: 3 hr 54 min 9 sec) 
Heartbeat CPU 0 instructions: 1750000000 cycles: 2117416871 heartbeat IPC: 0.366443 cumulative IPC: 0.637386 (Simulation time: 3 hr 55 min 18 sec) 
Heartbeat CPU 0 instructions: 1760000002 cycles: 2123179037 heartbeat IPC: 1.73546 cumulative IPC: 0.640603 (Simulation time: 3 hr 56 min 14 sec) 
Heartbeat CPU 0 instructions: 1770000000 cycles: 2128939029 heartbeat IPC: 1.73611 cumulative IPC: 0.643802 (Simulation time: 3 hr 57 min 10 sec) 
Heartbeat CPU 0 instructions: 1780000002 cycles: 2158273145 heartbeat IPC: 0.3409 cumulative IPC: 0.639364 (Simulation time: 3 hr 58 min 17 sec) 
Heartbeat CPU 0 instructions: 1790000000 cycles: 2191044117 heartbeat IPC: 0.305148 cumulative IPC: 0.633981 (Simulation time: 3 hr 59 min 28 sec) 
Heartbeat CPU 0 instructions: 1800000000 cycles: 2209979609 heartbeat IPC: 0.528109 cumulative IPC: 0.633005 (Simulation time: 4 hr 0 min 32 sec) 
Heartbeat CPU 0 instructions: 1810000001 cycles: 2215680032 heartbeat IPC: 1.75426 cumulative IPC: 0.636109 (Simulation time: 4 hr 1 min 28 sec) 
Heartbeat CPU 0 instructions: 1820000002 cycles: 2226311062 heartbeat IPC: 0.940643 cumulative IPC: 0.637672 (Simulation time: 4 hr 2 min 25 sec) 
Heartbeat CPU 0 instructions: 1830000002 cycles: 2259082459 heartbeat IPC: 0.305144 cumulative IPC: 0.63249 (Simulation time: 4 hr 3 min 35 sec) 
Heartbeat CPU 0 instructions: 1840000000 cycles: 2291833306 heartbeat IPC: 0.305336 cumulative IPC: 0.627473 (Simulation time: 4 hr 4 min 45 sec) 
Heartbeat CPU 0 instructions: 1850000002 cycles: 2320930903 heartbeat IPC: 0.343671 cumulative IPC: 0.623658 (Simulation time: 4 hr 5 min 56 sec) 
Heartbeat CPU 0 instructions: 1860000003 cycles: 2348774955 heartbeat IPC: 0.359143 cumulative IPC: 0.620299 (Simulation time: 4 hr 7 min 6 sec) 
Heartbeat CPU 0 instructions: 1870000000 cycles: 2382501623 heartbeat IPC: 0.296501 cumulative IPC: 0.615393 (Simulation time: 4 hr 8 min 21 sec) 
Heartbeat CPU 0 instructions: 1880000004 cycles: 2422176920 heartbeat IPC: 0.252046 cumulative IPC: 0.609031 (Simulation time: 4 hr 9 min 42 sec) 
Heartbeat CPU 0 instructions: 1890000002 cycles: 2458252696 heartbeat IPC: 0.277194 cumulative IPC: 0.603831 (Simulation time: 4 hr 10 min 57 sec) 
Heartbeat CPU 0 instructions: 1900000004 cycles: 2491019677 heartbeat IPC: 0.305185 cumulative IPC: 0.599639 (Simulation time: 4 hr 12 min 8 sec) 
Heartbeat CPU 0 instructions: 1910000001 cycles: 2521653662 heartbeat IPC: 0.326435 cumulative IPC: 0.596101 (Simulation time: 4 hr 13 min 17 sec) 
Heartbeat CPU 0 instructions: 1920000001 cycles: 2536056977 heartbeat IPC: 0.694285 cumulative IPC: 0.596695 (Simulation time: 4 hr 14 min 20 sec) 
Heartbeat CPU 0 instructions: 1930000001 cycles: 2550302140 heartbeat IPC: 0.701993 cumulative IPC: 0.597322 (Simulation time: 4 hr 15 min 24 sec) 
Heartbeat CPU 0 instructions: 1940000004 cycles: 2578717305 heartbeat IPC: 0.351925 cumulative IPC: 0.594443 (Simulation time: 4 hr 16 min 32 sec) 
Heartbeat CPU 0 instructions: 1950000003 cycles: 2611501665 heartbeat IPC: 0.305023 cumulative IPC: 0.590579 (Simulation time: 4 hr 17 min 42 sec) 
Heartbeat CPU 0 instructions: 1960000003 cycles: 2639633360 heartbeat IPC: 0.355471 cumulative IPC: 0.587915 (Simulation time: 4 hr 18 min 51 sec) 
Heartbeat CPU 0 instructions: 1970000004 cycles: 2660952234 heartbeat IPC: 0.469068 cumulative IPC: 0.586904 (Simulation time: 4 hr 19 min 56 sec) 
Heartbeat CPU 0 instructions: 1980000002 cycles: 2683312600 heartbeat IPC: 0.44722 cumulative IPC: 0.585668 (Simulation time: 4 hr 21 min 2 sec) 
Heartbeat CPU 0 instructions: 1990000000 cycles: 2715938682 heartbeat IPC: 0.306503 cumulative IPC: 0.58211 (Simulation time: 4 hr 22 min 12 sec) 
*** Reached end of trace: traces/462.libquantum-714B.champsimtrace.xz
Heartbeat CPU 0 instructions: 2000000001 cycles: 2748725992 heartbeat IPC: 0.304996 cumulative IPC: 0.578605 (Simulation time: 4 hr 23 min 23 sec) 
Finished CPU 0 instructions: 1500000000 cycles: 2592443023 cumulative IPC: 0.578605 (Simulation time: 4 hr 23 min 23 sec) 

ChampSim completed all CPUs

Region of Interest Statistics

CPU 0 cumulative IPC: 0.578605 instructions: 1500000000 cycles: 2592443023
cpu0_DTLB TOTAL     ACCESS:  243473682  HIT:  242871958  MISS:     601724
cpu0_DTLB LOAD      ACCESS:  214604407  HIT:  214188654  MISS:     415753
cpu0_DTLB RFO       ACCESS:   28869275  HIT:   28683304  MISS:     185971
cpu0_DTLB PREFETCH  ACCESS:          0  HIT:          0  MISS:          0
cpu0_DTLB WRITEBACK ACCESS:          0  HIT:          0  MISS:          0
cpu0_DTLB TRANSLATION ACCESS:          0  HIT:          0  MISS:          0
cpu0_DTLB PREFETCH  REQUESTED:          0  ISSUED:          0  USEFUL:          0  USELESS:          0
cpu0_DTLB AVERAGE MISS LATENCY: 17.148 cycles
cpu0_ITLB TOTAL     ACCESS:   82144965  HIT:   82144965  MISS:          0
cpu0_ITLB LOAD      ACCESS:   82144965  HIT:   82144965  MISS:          0
cpu0_ITLB RFO       ACCESS:          0  HIT:          0  MISS:          0
cpu0_ITLB PREFETCH  ACCESS:          0  HIT:          0  MISS:          0
cpu0_ITLB WRITEBACK ACCESS:          0  HIT:          0  MISS:          0
cpu0_ITLB TRANSLATION ACCESS:          0  HIT:          0  MISS:          0
cpu0_ITLB PREFETCH  REQUESTED:          0  ISSUED:          0  USEFUL:          0  USELESS:          0
cpu0_ITLB AVERAGE MISS LATENCY: -nan cycles
cpu0_L1I TOTAL     ACCESS:         48  HIT:         33  MISS:         15
cpu0_L1I LOAD      ACCESS:         48  HIT:         33  MISS:         15
cpu0_L1I RFO       ACCESS:          0  HIT:          0  MISS:          0
cpu0_L1I PREFETCH  ACCESS:          0  HIT:          0  MISS:          0
cpu0_L1I WRITEBACK ACCESS:          0  HIT:          0  MISS:          0
cpu0_L1I TRANSLATION ACCESS:          0  HIT:          0  MISS:          0
cpu0_L1I PREFETCH  REQUESTED:          0  ISSUED:          0  USEFUL:          0  USELESS:          0
cpu0_L1I AVERAGE MISS LATENCY: 235.6 cycles
cpu0_STLB TOTAL     ACCESS:     601724  HIT:          0  MISS:     601724
cpu0_STLB LOAD      ACCESS:     415753  HIT:          0  MISS:     415753
cpu0_STLB RFO       ACCESS:     185971  HIT:          0  MISS:     185971
cpu0_STLB PREFETCH  ACCESS:          0  HIT:          0  MISS:          0
cpu0_STLB WRITEBACK ACCESS:          0  HIT:          0  MISS:          0
cpu0_STLB TRANSLATION ACCESS:          0  HIT:          0  MISS:          0
cpu0_STLB PREFETCH  REQUESTED:          0  ISSUED:          0  USEFUL:          0  USELESS:          0
cpu0_STLB AVERAGE MISS LATENCY: 8.14797 cycles
cpu0_L1D TOTAL     ACCESS:  189579602  HIT:  151077736  MISS:   38501866
cpu0_L1D LOAD      ACCESS:  131728703  HIT:   93227411  MISS:   38501292
cpu0_L1D RFO       ACCESS:   57249175  HIT:   57248894  MISS:        281
cpu0_L1D PREFETCH  ACCESS:          0  HIT:          0  MISS:          0
cpu0_L1D WRITEBACK ACCESS:          0  HIT:          0  MISS:          0
cpu0_L1D TRANSLATION ACCESS:     601724  HIT:     601431  MISS:        293
cpu0_L1D PREFETCH  REQUESTED:          0  ISSUED:          0  USEFUL:          0  USELESS:          0
cpu0_L1D AVERAGE MISS LATENCY: 319.345 cycles
cpu0_L2C TOTAL     ACCESS:   55709724  HIT:   17207843  MISS:   38501881
cpu0_L2C LOAD      ACCESS:   38501307  HIT:          0  MISS:   38501307
cpu0_L2C RFO       ACCESS:        281  HIT:          0  MISS:        281
cpu0_L2C PREFETCH  ACCESS:          0  HIT:          0  MISS:          0
cpu0_L2C WRITEBACK ACCESS:   17207843  HIT:   17207843  MISS:          0
cpu0_L2C TRANSLATION ACCESS:        293  HIT:          0  MISS:        293
cpu0_L2C PREFETCH  REQUESTED:          0  ISSUED:          0  USEFUL:          0  USELESS:          0
cpu0_L2C AVERAGE MISS LATENCY: 308.344 cycles
LLC TOTAL     ACCESS:   55713901  HIT:   17212020  MISS:   38501881
LLC LOAD      ACCESS:   38501307  HIT:          0  MISS:   38501307
LLC RFO       ACCESS:        281  HIT:          0  MISS:        281
LLC PREFETCH  ACCESS:          0  HIT:          0  MISS:          0
LLC WRITEBACK ACCESS:   17212020  HIT:   17212020  MISS:          0
LLC TRANSLATION ACCESS:        293  HIT:          0  MISS:        293
LLC PREFETCH  REQUESTED:          0  ISSUED:          0  USEFUL:          0  USELESS:          0
LLC AVERAGE MISS LATENCY: 287.344 cycles
~~~~~~~~~~Reuse Distance Profiler output~~~~~~~~~~
0	108840288	71917712
1	90554032	59135072
2	27684096	19813984
3	9841072	7958688
4	6465680	6195408
5	3567408	3489120
6	1231760	934336
7	1907968	1138576
8	495776	484368
9	111888	101520
10	16704	12592
11	22240	8480
12	136784	9168
13	47360	640
14	125648	115520
15	221376	216736
16	48400	1888
17	10816	320
18	7968	0
19	664688	16
20	109232	16
21	8048	928
22	6608	768
23	13024	6848
24	8528	1600
25	116064	1824
26	40272	1920
27	6928	2240
28	4384	592
29	7232	1536
30	40912	2176
31	5248	2512
32	35824	1584
33	118368	1008
34	3072	432
35	3392	32
36	134400	0
37	111552	0
38	1712	0
39	10432	0
40	13344	0
41	124448	0
42	9536	0
43	9248	0
44	41648	0
45	115680	0
46	25216	0
47	125392	0
48	56224	0
49	49888	0
50	26656	0
51	640	0
52	15680	0
53	20432	0
54	8400	0
55	21200	0
56	291280	0
57	28384	0
58	40080	0
59	36416	0
60	17008	0
61	126336	0
62	85424	0
63	8240	0
64	165856	0
66	61248	0
68	179104	0
70	42080	0
72	16	16
74	0	0
76	32	32
78	16	16
80	0	0
82	0	0
84	0	0
86	0	0
88	0	0
90	0	0
92	0	0
94	0	0
96	0	0
98	0	0
100	0	0
102	0	0
104	0	0
106	0	0
108	0	0
110	0	0
112	0	0
114	0	0
116	0	0
118	0	0
120	0	0
122	0	0
124	0	0
126	0	0
128	0	0
132	0	0
136	0	0
140	0	0
144	0	0
148	0	0
152	0	0
156	0	0
160	0	0
164	0	0
168	0	0
172	0	0
176	0	0
180	0	0
184	0	0
188	0	0
192	0	0
196	0	0
200	0	0
204	0	0
208	0	0
212	0	0
216	0	0
220	0	0
224	0	0
228	0	0
232	0	0
236	0	0
240	0	0
244	0	0
248	0	0
252	0	0
256	0	0
264	0	0
272	0	0
280	0	0
288	0	0
296	0	0
304	0	0
312	0	0
320	0	0
328	0	0
336	0	0
344	0	0
352	0	0
360	0	0
368	0	0
376	0	0
384	0	0
392	0	0
400	0	0
408	0	0
416	0	0
424	0	0
432	0	0
440	0	0
448	0	0
456	0	0
464	0	0
472	0	0
480	0	0
488	0	0
496	0	0
504	0	0
512	0	0
528	0	0
544	0	0
560	0	0
576	0	0
592	0	0
608	0	0
624	0	0
640	0	0
656	0	0
672	0	0
688	0	0
704	0	0
720	0	0
736	0	0
752	0	0
768	0	0
784	0	0
800	0	0
816	0	0
832	0	0
848	0	0
864	0	0
880	0	0
896	0	0
912	0	0
928	0	0
944	0	0
960	0	0
976	0	0
992	0	0
1008	0	0
1024	0	0
1056	0	0
1088	0	0
1120	0	0
1152	0	0
1184	0	0
1216	0	0
1248	0	0
1280	0	0
1312	0	0
1344	0	0
1376	0	0
1408	0	0
1440	0	0
1472	0	0
1504	0	0
1536	0	0
1568	0	0
1600	0	0
1632	0	0
1664	0	0
1696	0	0
1728	0	0
1760	0	0
1792	0	0
1824	0	0
1856	0	0
1888	0	0
1920	0	0
1952	0	0
1984	0	0
2016	0	0
2048	0	0
2112	0	0
2176	0	0
2240	0	0
2304	0	0
2368	0	0
2432	0	0
2496	0	0
2560	0	0
2624	0	0
2688	0	0
2752	0	0
2816	0	0
2880	0	0
2944	0	0
3008	0	0
3072	0	0
3136	0	0
3200	0	0
3264	0	0
3328	0	0
3392	0	0
3456	0	0
3520	0	0
3584	0	0
3648	0	0
3712	0	0
3776	0	0
3840	0	0
3904	0	0
3968	0	0
4032	0	0
4096	0	0
4224	0	0
4352	0	0
4480	0	0
4608	0	0
4736	0	0
4864	0	0
4992	0	0
5120	0	0
5248	0	0
5376	0	0
5504	0	0
5632	0	0
5760	0	0
5888	0	0
6016	0	0
6144	0	0
6272	0	0
6400	0	0
6528	0	0
6656	0	0
6784	0	0
6912	0	0
7040	0	0
7168	0	0
7296	0	0
7424	0	0
7552	0	0
7680	0	0
7808	0	0
7936	0	0
8064	0	0
8192	0	0
8448	0	0
8704	0	0
8960	0	0
9216	0	0
9472	0	0
9728	0	0
9984	0	0
10240	0	0
10496	0	0
10752	0	0
11008	0	0
11264	0	0
11520	0	0
11776	0	0
12032	0	0
12288	0	0
12544	0	0
12800	0	0
13056	0	0
13312	0	0
13568	0	0
13824	0	0
14080	0	0
14336	0	0
14592	0	0
14848	0	0
15104	0	0
15360	0	0
15616	0	0
15872	0	0
16128	0	0
16384	0	0
16896	0	0
17408	0	0
17920	0	0
18432	0	0
18944	0	0
19456	0	0
19968	0	0
20480	0	0
20992	0	0
21504	0	0
22016	0	0
22528	0	0
23040	0	0
23552	0	0
24064	0	0
24576	0	0
25088	0	0
25600	0	0
26112	0	0
26624	0	0
27136	0	0
27648	0	0
28160	0	0
28672	0	0
29184	0	0
29696	0	0
30208	0	0
30720	0	0
31232	0	0
31744	0	0
32256	0	0
32768	0	0
33792	0	0
34816	0	0
35840	0	0
36864	0	0
37888	0	0
38912	0	0
39936	0	0
40960	0	0
41984	0	0
43008	0	0
44032	0	0
45056	0	0
46080	0	0
47104	0	0
48128	0	0
49152	0	0
50176	0	0
51200	0	0
52224	0	0
53248	0	0
54272	0	0
55296	0	0
56320	0	0
57344	0	0
58368	0	0
59392	0	0
60416	0	0
61440	0	0
62464	0	0
63488	0	0
64512	0	0
65536	0	0
67584	0	0
69632	0	0
71680	0	0
73728	0	0
75776	0	0
77824	0	0
79872	0	0
81920	0	0
83968	0	0
86016	0	0
88064	0	0
90112	0	0
92160	0	0
94208	0	0
96256	0	0
98304	0	0
100352	0	0
102400	0	0
104448	0	0
106496	0	0
108544	0	0
110592	0	0
112640	0	0
114688	0	0
116736	0	0
118784	0	0
120832	0	0
122880	0	0
124928	0	0
126976	0	0
129024	0	0
131072	0	0
135168	0	0
139264	0	0
143360	0	0
147456	0	0
151552	0	0
155648	0	0
159744	0	0
163840	0	0
167936	0	0
172032	0	0
176128	0	0
180224	0	0
184320	0	0
188416	0	0
192512	0	0
196608	0	0
200704	0	0
204800	0	0
208896	0	0
212992	0	0
217088	0	0
221184	0	0
225280	0	0
229376	0	0
233472	0	0
237568	0	0
241664	0	0
245760	0	0
249856	0	0
253952	0	0
258048	0	0
262144	0	0
270336	0	0
278528	0	0
286720	0	0
294912	0	0
303104	0	0
311296	0	0
319488	0	0
327680	0	0
335872	0	0
344064	0	0
352256	0	0
360448	0	0
368640	0	0
376832	0	0
385024	0	0
393216	0	0
401408	0	0
409600	0	0
417792	0	0
425984	0	0
434176	0	0
442368	0	0
450560	0	0
458752	0	0
466944	0	0
475136	0	0
483328	0	0
491520	0	0
499712	0	0
507904	0	0
516096	0	0
524288	0	0
540672	0	0
557056	0	0
573440	0	0
589824	0	0
606208	0	0
622592	0	0
638976	0	0
655360	0	0
671744	0	0
688128	0	0
704512	0	0
720896	0	0
737280	0	0
753664	0	0
770048	0	0
786432	0	0
802816	0	0
819200	0	0
835584	0	0
851968	0	0
868352	0	0
884736	0	0
901120	0	0
917504	0	0
933888	0	0
950272	0	0
966656	0	0
983040	0	0
999424	0	0
1015808	0	0
1032192	0	0
1048576	0	0
1081344	0	0
1114112	0	0
1146880	0	0
1179648	0	0
1212416	0	0
1245184	0	0
1277952	0	0
1310720	0	0
1343488	0	0
1376256	0	0
1409024	0	0
1441792	0	0
1474560	0	0
1507328	0	0
1540096	0	0
1572864	0	0
1605632	0	0
1638400	0	0
1671168	0	0
1703936	127856	127824
1736704	1116560	1116528
1769472	2462480	2462464
1802240	1469856	1469808
1835008	872768	872768
1867776	872704	872688
1900544	677712	677696
1933312	389648	389648
1966080	432448	432448
1998848	650896	650880
2031616	645328	645328
2064384	644672	644672
2097152	1364176	1364176
2162688	1349232	1349232
2228224	1287088	1287088
2293760	1319312	1319312
2359296	1451856	1451856
2424832	1731152	1731152
2490368	1729856	1729856
2555904	1662432	1662432
2621440	1458432	1458416
2686976	895152	895152
2752512	895264	895264
2818048	885456	885456
2883584	885552	885552
2949120	895072	895072
3014656	894832	894832
3080192	894688	894688
3145728	895136	895136
3211264	895712	895712
3276800	897200	897200
3342336	895952	895952
3407872	895952	895952
3473408	899024	899024
3538944	897296	897296
3604480	1555872	1555744
3670016	334512	334512
3735552	85616	85616
3801088	85360	85360
3866624	905824	905808
3932160	875008	875008
3997696	712352	712352
4063232	387600	387600
4128768	375072	375072
4194304	956288	956288
4325376	1129984	1129984
4456448	703008	702992
4587520	683616	683616
4718592	694720	694720
4849664	721344	721344
4980736	728112	728112
5111808	737552	737536
5242880	797232	797232
5373952	1808784	1808768
5505024	651072	651072
5636096	165392	165392
5767168	0	0
5898240	0	0
6029312	0	0
6160384	16	0
6291456	0	0
6422528	0	0
6553600	0	0
6684672	0	0
6815744	0	0
6946816	0	0
7077888	0	0
7208960	0	0
7340032	0	0
7471104	0	0
7602176	0	0
7733248	0	0
7864320	0	0
7995392	0	0
8126464	0	0
8257536	0	0
8388608	0	0
8650752	0	0
8912896	0	0
9175040	0	0
9437184	0	0
9699328	0	0
9961472	0	0
10223616	0	0
10485760	0	0
10747904	0	0
11010048	0	0
11272192	0	0
11534336	0	0
11796480	0	0
12058624	0	0
12320768	0	0
12582912	0	0
12845056	0	0
13107200	0	0
13369344	0	0
13631488	0	0
13893632	0	0
14155776	0	0
14417920	0	0
14680064	0	0
14942208	0	0
15204352	0	0
15466496	0	0
15728640	0	0
15990784	0	0
16252928	0	0
16515072	0	0
16777216	0	0
17301504	0	0
17825792	0	0
18350080	0	0
18874368	0	0
19398656	0	0
19922944	0	0
20447232	0	0
20971520	0	0
21495808	0	0
22020096	0	0
22544384	0	0
23068672	0	0
23592960	0	0
24117248	0	0
24641536	0	0
25165824	0	0
25690112	0	0
26214400	0	0
26738688	0	0
27262976	0	0
27787264	0	0
28311552	0	0
28835840	0	0
29360128	0	0
29884416	0	0
30408704	0	0
30932992	0	0
31457280	0	0
31981568	0	0
32505856	0	0
33030144	0	0
33554432	0	0
34603008	0	0
35651584	0	0
36700160	0	0
37748736	0	0
38797312	0	0
39845888	0	0
40894464	0	0
41943040	0	0
42991616	0	0
44040192	0	0
45088768	0	0
46137344	0	0
47185920	0	0
48234496	0	0
49283072	0	0
50331648	0	0
51380224	0	0
52428800	0	0
53477376	0	0
54525952	0	0
55574528	0	0
56623104	0	0
57671680	0	0
58720256	0	0
59768832	0	0
60817408	0	0
61865984	0	0
62914560	0	0
63963136	0	0
65011712	0	0
66060288	0	0
67108864	0	0
69206016	0	0
71303168	0	0
73400320	0	0
75497472	0	0
77594624	0	0
79691776	0	0
81788928	0	0
83886080	0	0
85983232	0	0
88080384	0	0
90177536	0	0
92274688	0	0
94371840	0	0
96468992	0	0
98566144	0	0
100663296	0	0
102760448	0	0
104857600	0	0
106954752	0	0
109051904	0	0
111149056	0	0
113246208	0	0
115343360	0	0
117440512	0	0
119537664	0	0
121634816	0	0
123731968	0	0
125829120	0	0
127926272	0	0
130023424	0	0
132120576	0	0
134217728	0	0
138412032	0	0
142606336	0	0
146800640	0	0
150994944	0	0
155189248	0	0
159383552	0	0
163577856	0	0
167772160	0	0
171966464	0	0
176160768	0	0
180355072	0	0
184549376	0	0
188743680	0	0
192937984	0	0
197132288	0	0
201326592	0	0
205520896	0	0
209715200	0	0
213909504	0	0
218103808	0	0
222298112	0	0
226492416	0	0
230686720	0	0
234881024	0	0
239075328	0	0
243269632	0	0
247463936	0	0
251658240	0	0
255852544	0	0
260046848	0	0
264241152	0	0
268435456	0	0
276824064	0	0
285212672	0	0
293601280	0	0
301989888	0	0
310378496	0	0
318767104	0	0
327155712	0	0
335544320	0	0
343932928	0	0
352321536	0	0
360710144	0	0
369098752	0	0
377487360	0	0
385875968	0	0
394264576	0	0
402653184	0	0
411041792	0	0
419430400	0	0
427819008	0	0
436207616	0	0
444596224	0	0
452984832	0	0
461373440	0	0
469762048	0	0
478150656	0	0
486539264	0	0
494927872	0	0
503316480	0	0
511705088	0	0
520093696	0	0
528482304	0	0
536870912	0	0
553648128	0	0
570425344	0	0
587202560	0	0
603979776	0	0
620756992	0	0
637534208	0	0
654311424	0	0
671088640	0	0
687865856	0	0
704643072	0	0
721420288	0	0
738197504	0	0
754974720	0	0
771751936	0	0
788529152	0	0
805306368	0	0
822083584	0	0
838860800	0	0
855638016	0	0
872415232	0	0
889192448	0	0
905969664	0	0
922746880	0	0
939524096	0	0
956301312	0	0
973078528	0	0
989855744	0	0
1006632960	0	0
1023410176	0	0
1040187392	0	0
1056964608	0	0
1073741824	0	0
1107296256	0	0
1140850688	0	0
1174405120	0	0
1207959552	0	0
1241513984	0	0
1275068416	0	0
1308622848	0	0
1342177280	0	0
1375731712	0	0
1409286144	0	0
1442840576	0	0
1476395008	0	0
1509949440	0	0
1543503872	0	0
1577058304	0	0
1610612736	0	0
1644167168	0	0
1677721600	0	0
1711276032	0	0
1744830464	0	0
1778384896	0	0
1811939328	0	0
1845493760	0	0
1879048192	0	0
1912602624	0	0
1946157056	0	0
1979711488	0	0
2013265920	0	0
2046820352	0	0
2080374784	0	0
2113929216	0	0
2147483648	0	0
2214592512	0	0
2281701376	0	0
2348810240	0	0
2415919104	0	0
2483027968	0	0
2550136832	0	0
2617245696	0	0
2684354560	0	0
2751463424	0	0
2818572288	0	0
2885681152	0	0
2952790016	0	0
3019898880	0	0
3087007744	0	0
3154116608	0	0
3221225472	0	0
3288334336	0	0
3355443200	0	0
3422552064	0	0
3489660928	0	0
3556769792	0	0
3623878656	0	0
3690987520	0	0
3758096384	0	0
3825205248	0	0
3892314112	0	0
3959422976	0	0
4026531840	0	0
4093640704	0	0
4160749568	0	0
4227858432	0	0
~~~~~~~~~~Reuse Distance Profiler output end~~~~~~~~~~

DRAM Statistics
 CHANNEL 0
 RQ ROW_BUFFER_HIT:   18384919  ROW_BUFFER_MISS:   20116174
 DBUS AVG_CONGESTED_CYCLE:    3.91527
 WQ ROW_BUFFER_HIT:    3205768  ROW_BUFFER_MISS:   14020024  FULL:          0


CPU 0 Branch Prediction Accuracy: 96.2967% MPKI: 6.41342 Average ROB Occupancy at Mispredict: 38.0746
Branch type MPKI
BRANCH_DIRECT_JUMP: 6e-06
BRANCH_INDIRECT: 6.66667e-06
BRANCH_CONDITIONAL: 6.41337
BRANCH_DIRECT_CALL: 1.8e-05
BRANCH_INDIRECT_CALL: 0
BRANCH_RETURN: 1.86667e-05

