
*** ChampSim Multicore Out-of-Order Simulator ***

Warmup Instructions: 500000000
Simulation Instructions: 1500000000
Number of CPUs: 1
Off-chip DRAM Size: 4 GiB Channels: 1 Width: 64-bit Data Rate: 3200 MT/s

VirtualMemory physical capacity: 8588881920 num_ppages: 2096895
VirtualMemory page size: 4096 log2_page_size: 12

CPU 0 runs traces/464.h264ref-64B.champsimtrace.xz
CPU 0 Bimodal branch predictor
Basic BTB sets: 1024 ways: 8 indirect buffer size: 4096 RAS size: 64
Initializing LRU.
Initializing LRU.
Initializing LRU.
Initializing LRU.
Initializing rdLRU.
Initializing LRU.
Initializing LRU.
Heartbeat CPU 0 instructions: 10000002 cycles: 2561833 heartbeat IPC: 3.90346 cumulative IPC: 3.90346 (Simulation time: 0 hr 0 min 35 sec) 
Heartbeat CPU 0 instructions: 20000003 cycles: 5306909 heartbeat IPC: 3.64289 cumulative IPC: 3.76867 (Simulation time: 0 hr 1 min 14 sec) 
Heartbeat CPU 0 instructions: 30000001 cycles: 8568413 heartbeat IPC: 3.06607 cumulative IPC: 3.50123 (Simulation time: 0 hr 2 min 5 sec) 
Heartbeat CPU 0 instructions: 40000003 cycles: 11836224 heartbeat IPC: 3.06015 cumulative IPC: 3.37946 (Simulation time: 0 hr 3 min 1 sec) 
Heartbeat CPU 0 instructions: 50000001 cycles: 15102112 heartbeat IPC: 3.06195 cumulative IPC: 3.3108 (Simulation time: 0 hr 4 min 11 sec) 
Heartbeat CPU 0 instructions: 60000001 cycles: 17844893 heartbeat IPC: 3.64593 cumulative IPC: 3.36231 (Simulation time: 0 hr 4 min 58 sec) 
Heartbeat CPU 0 instructions: 70000000 cycles: 20785089 heartbeat IPC: 3.40113 cumulative IPC: 3.3678 (Simulation time: 0 hr 5 min 42 sec) 
Heartbeat CPU 0 instructions: 80000000 cycles: 25712136 heartbeat IPC: 2.02961 cumulative IPC: 3.11137 (Simulation time: 0 hr 7 min 35 sec) 
Heartbeat CPU 0 instructions: 90000000 cycles: 30718323 heartbeat IPC: 1.99753 cumulative IPC: 2.92985 (Simulation time: 0 hr 9 min 10 sec) 
Heartbeat CPU 0 instructions: 100000001 cycles: 33308948 heartbeat IPC: 3.86007 cumulative IPC: 3.0022 (Simulation time: 0 hr 10 min 4 sec) 
Heartbeat CPU 0 instructions: 110000001 cycles: 36469047 heartbeat IPC: 3.16446 cumulative IPC: 3.01626 (Simulation time: 0 hr 11 min 3 sec) 
Heartbeat CPU 0 instructions: 120000003 cycles: 41370085 heartbeat IPC: 2.04038 cumulative IPC: 2.90065 (Simulation time: 0 hr 12 min 34 sec) 
Heartbeat CPU 0 instructions: 130000000 cycles: 46304404 heartbeat IPC: 2.02662 cumulative IPC: 2.80751 (Simulation time: 0 hr 14 min 6 sec) 
Heartbeat CPU 0 instructions: 140000003 cycles: 48839629 heartbeat IPC: 3.94442 cumulative IPC: 2.86652 (Simulation time: 0 hr 14 min 40 sec) 
Heartbeat CPU 0 instructions: 150000002 cycles: 51974669 heartbeat IPC: 3.18975 cumulative IPC: 2.88602 (Simulation time: 0 hr 15 min 31 sec) 
Heartbeat CPU 0 instructions: 160000000 cycles: 56880209 heartbeat IPC: 2.03851 cumulative IPC: 2.81293 (Simulation time: 0 hr 17 min 20 sec) 
Heartbeat CPU 0 instructions: 170000000 cycles: 61831260 heartbeat IPC: 2.01977 cumulative IPC: 2.74942 (Simulation time: 0 hr 19 min 19 sec) 
Heartbeat CPU 0 instructions: 180000000 cycles: 64375440 heartbeat IPC: 3.93054 cumulative IPC: 2.7961 (Simulation time: 0 hr 19 min 55 sec) 
Heartbeat CPU 0 instructions: 190000000 cycles: 67313704 heartbeat IPC: 3.40337 cumulative IPC: 2.82261 (Simulation time: 0 hr 20 min 40 sec) 
Heartbeat CPU 0 instructions: 200000002 cycles: 72205748 heartbeat IPC: 2.04414 cumulative IPC: 2.76986 (Simulation time: 0 hr 22 min 8 sec) 
Heartbeat CPU 0 instructions: 210000000 cycles: 77126940 heartbeat IPC: 2.03203 cumulative IPC: 2.72278 (Simulation time: 0 hr 23 min 59 sec) 
Heartbeat CPU 0 instructions: 220000002 cycles: 79904534 heartbeat IPC: 3.60024 cumulative IPC: 2.75329 (Simulation time: 0 hr 24 min 40 sec) 
Heartbeat CPU 0 instructions: 230000001 cycles: 82546721 heartbeat IPC: 3.78474 cumulative IPC: 2.7863 (Simulation time: 0 hr 25 min 17 sec) 
Heartbeat CPU 0 instructions: 240000000 cycles: 87287019 heartbeat IPC: 2.10957 cumulative IPC: 2.74955 (Simulation time: 0 hr 26 min 56 sec) 
Heartbeat CPU 0 instructions: 250000000 cycles: 92237596 heartbeat IPC: 2.01997 cumulative IPC: 2.71039 (Simulation time: 0 hr 28 min 38 sec) 
Heartbeat CPU 0 instructions: 260000004 cycles: 95427407 heartbeat IPC: 3.13498 cumulative IPC: 2.72458 (Simulation time: 0 hr 29 min 28 sec) 
Heartbeat CPU 0 instructions: 270000001 cycles: 98033055 heartbeat IPC: 3.83782 cumulative IPC: 2.75417 (Simulation time: 0 hr 30 min 9 sec) 
Heartbeat CPU 0 instructions: 280000000 cycles: 102471825 heartbeat IPC: 2.25288 cumulative IPC: 2.73246 (Simulation time: 0 hr 32 min 3 sec) 
Heartbeat CPU 0 instructions: 290000001 cycles: 107368571 heartbeat IPC: 2.04217 cumulative IPC: 2.70098 (Simulation time: 0 hr 33 min 47 sec) 
Heartbeat CPU 0 instructions: 300000004 cycles: 110955997 heartbeat IPC: 2.78751 cumulative IPC: 2.70377 (Simulation time: 0 hr 34 min 46 sec) 
Heartbeat CPU 0 instructions: 310000000 cycles: 113518699 heartbeat IPC: 3.90213 cumulative IPC: 2.73083 (Simulation time: 0 hr 35 min 23 sec) 
Heartbeat CPU 0 instructions: 320000002 cycles: 117563484 heartbeat IPC: 2.47232 cumulative IPC: 2.72193 (Simulation time: 0 hr 36 min 39 sec) 
Heartbeat CPU 0 instructions: 330000001 cycles: 122422757 heartbeat IPC: 2.05792 cumulative IPC: 2.69558 (Simulation time: 0 hr 38 min 17 sec) 
Heartbeat CPU 0 instructions: 340000000 cycles: 126480849 heartbeat IPC: 2.46421 cumulative IPC: 2.68815 (Simulation time: 0 hr 39 min 26 sec) 
Heartbeat CPU 0 instructions: 350000003 cycles: 129013683 heartbeat IPC: 3.94815 cumulative IPC: 2.71289 (Simulation time: 0 hr 40 min 2 sec) 
Heartbeat CPU 0 instructions: 360000002 cycles: 132620303 heartbeat IPC: 2.77268 cumulative IPC: 2.71452 (Simulation time: 0 hr 41 min 1 sec) 
Heartbeat CPU 0 instructions: 370000000 cycles: 137503615 heartbeat IPC: 2.04779 cumulative IPC: 2.69084 (Simulation time: 0 hr 42 min 29 sec) 
Heartbeat CPU 0 instructions: 380000003 cycles: 142017481 heartbeat IPC: 2.2154 cumulative IPC: 2.67573 (Simulation time: 0 hr 43 min 56 sec) 
Heartbeat CPU 0 instructions: 390000002 cycles: 144561052 heartbeat IPC: 3.93148 cumulative IPC: 2.69782 (Simulation time: 0 hr 44 min 29 sec) 
Heartbeat CPU 0 instructions: 400000002 cycles: 147777218 heartbeat IPC: 3.10929 cumulative IPC: 2.70678 (Simulation time: 0 hr 45 min 17 sec) 
Heartbeat CPU 0 instructions: 410000000 cycles: 152733423 heartbeat IPC: 2.01767 cumulative IPC: 2.68442 (Simulation time: 0 hr 46 min 56 sec) 
Heartbeat CPU 0 instructions: 420000001 cycles: 157483565 heartbeat IPC: 2.1052 cumulative IPC: 2.66694 (Simulation time: 0 hr 49 min 19 sec) 
Heartbeat CPU 0 instructions: 430000002 cycles: 160032626 heartbeat IPC: 3.92301 cumulative IPC: 2.68695 (Simulation time: 0 hr 50 min 0 sec) 
Heartbeat CPU 0 instructions: 440000003 cycles: 162876420 heartbeat IPC: 3.51643 cumulative IPC: 2.70143 (Simulation time: 0 hr 50 min 41 sec) 
Heartbeat CPU 0 instructions: 450000003 cycles: 166141684 heartbeat IPC: 3.06254 cumulative IPC: 2.70853 (Simulation time: 0 hr 51 min 30 sec) 
Heartbeat CPU 0 instructions: 460000001 cycles: 169394089 heartbeat IPC: 3.07465 cumulative IPC: 2.71556 (Simulation time: 0 hr 52 min 19 sec) 
Heartbeat CPU 0 instructions: 470000003 cycles: 172655387 heartbeat IPC: 3.06626 cumulative IPC: 2.72219 (Simulation time: 0 hr 53 min 8 sec) 
Heartbeat CPU 0 instructions: 480000003 cycles: 175286630 heartbeat IPC: 3.80049 cumulative IPC: 2.73837 (Simulation time: 0 hr 53 min 44 sec) 
Heartbeat CPU 0 instructions: 490000003 cycles: 177980498 heartbeat IPC: 3.71213 cumulative IPC: 2.75311 (Simulation time: 0 hr 54 min 20 sec) 
Heartbeat CPU 0 instructions: 500000000 cycles: 181247980 heartbeat IPC: 3.06046 cumulative IPC: 2.75865 (Simulation time: 0 hr 55 min 10 sec) 

Warmup complete CPU 0 instructions: 500000003 cycles: 181247981 (Simulation time: 0 hr 55 min 10 sec) 

Heartbeat CPU 0 instructions: 510000002 cycles: 186631820 heartbeat IPC: 1.85741 cumulative IPC: 1.85741 (Simulation time: 0 hr 55 min 53 sec) 
Heartbeat CPU 0 instructions: 520000001 cycles: 192038553 heartbeat IPC: 1.84955 cumulative IPC: 1.85347 (Simulation time: 0 hr 56 min 36 sec) 
Heartbeat CPU 0 instructions: 530000000 cycles: 197094410 heartbeat IPC: 1.9779 cumulative IPC: 1.89317 (Simulation time: 0 hr 57 min 16 sec) 
Heartbeat CPU 0 instructions: 540000003 cycles: 204321817 heartbeat IPC: 1.38362 cumulative IPC: 1.73357 (Simulation time: 0 hr 58 min 2 sec) 
Heartbeat CPU 0 instructions: 550000004 cycles: 210575495 heartbeat IPC: 1.59906 cumulative IPC: 1.70488 (Simulation time: 0 hr 59 min 18 sec) 
Heartbeat CPU 0 instructions: 560000001 cycles: 216751190 heartbeat IPC: 1.61925 cumulative IPC: 1.68999 (Simulation time: 1 hr 0 min 24 sec) 
Heartbeat CPU 0 instructions: 570000000 cycles: 222523079 heartbeat IPC: 1.73253 cumulative IPC: 1.69594 (Simulation time: 1 hr 1 min 10 sec) 
Heartbeat CPU 0 instructions: 580000001 cycles: 231007610 heartbeat IPC: 1.17862 cumulative IPC: 1.60773 (Simulation time: 1 hr 1 min 54 sec) 
Heartbeat CPU 0 instructions: 590000000 cycles: 237510400 heartbeat IPC: 1.5378 cumulative IPC: 1.59965 (Simulation time: 1 hr 3 min 0 sec) 
Heartbeat CPU 0 instructions: 600000002 cycles: 243781169 heartbeat IPC: 1.5947 cumulative IPC: 1.59915 (Simulation time: 1 hr 4 min 25 sec) 
Heartbeat CPU 0 instructions: 610000001 cycles: 249050615 heartbeat IPC: 1.89773 cumulative IPC: 1.62236 (Simulation time: 1 hr 5 min 14 sec) 
Heartbeat CPU 0 instructions: 620000001 cycles: 256156875 heartbeat IPC: 1.40721 cumulative IPC: 1.60195 (Simulation time: 1 hr 5 min 57 sec) 
Heartbeat CPU 0 instructions: 630000002 cycles: 262704324 heartbeat IPC: 1.52731 cumulative IPC: 1.59595 (Simulation time: 1 hr 7 min 2 sec) 
Heartbeat CPU 0 instructions: 640000002 cycles: 268946610 heartbeat IPC: 1.60198 cumulative IPC: 1.59638 (Simulation time: 1 hr 8 min 9 sec) 
Heartbeat CPU 0 instructions: 650000000 cycles: 274433137 heartbeat IPC: 1.82265 cumulative IPC: 1.6097 (Simulation time: 1 hr 8 min 59 sec) 
Heartbeat CPU 0 instructions: 660000001 cycles: 281325798 heartbeat IPC: 1.45082 cumulative IPC: 1.59876 (Simulation time: 1 hr 9 min 42 sec) 
Heartbeat CPU 0 instructions: 670000002 cycles: 288214660 heartbeat IPC: 1.45162 cumulative IPC: 1.58928 (Simulation time: 1 hr 10 min 44 sec) 
Heartbeat CPU 0 instructions: 680000003 cycles: 294396507 heartbeat IPC: 1.61764 cumulative IPC: 1.59083 (Simulation time: 1 hr 11 min 49 sec) 
Heartbeat CPU 0 instructions: 690000004 cycles: 300282367 heartbeat IPC: 1.69899 cumulative IPC: 1.59618 (Simulation time: 1 hr 13 min 8 sec) 
Heartbeat CPU 0 instructions: 700000000 cycles: 308395778 heartbeat IPC: 1.23253 cumulative IPC: 1.57297 (Simulation time: 1 hr 13 min 52 sec) 
Heartbeat CPU 0 instructions: 710000001 cycles: 315919455 heartbeat IPC: 1.32914 cumulative IPC: 1.55935 (Simulation time: 1 hr 14 min 50 sec) 
Heartbeat CPU 0 instructions: 720000004 cycles: 322085169 heartbeat IPC: 1.62187 cumulative IPC: 1.56209 (Simulation time: 1 hr 15 min 58 sec) 
Heartbeat CPU 0 instructions: 730000001 cycles: 327873410 heartbeat IPC: 1.72764 cumulative IPC: 1.56862 (Simulation time: 1 hr 16 min 55 sec) 
Heartbeat CPU 0 instructions: 740000000 cycles: 335534253 heartbeat IPC: 1.30534 cumulative IPC: 1.55555 (Simulation time: 1 hr 17 min 39 sec) 
Heartbeat CPU 0 instructions: 750000002 cycles: 343423429 heartbeat IPC: 1.26756 cumulative IPC: 1.54154 (Simulation time: 1 hr 18 min 34 sec) 
Heartbeat CPU 0 instructions: 760000000 cycles: 349651339 heartbeat IPC: 1.60567 cumulative IPC: 1.54391 (Simulation time: 1 hr 19 min 40 sec) 
Heartbeat CPU 0 instructions: 770000002 cycles: 355550566 heartbeat IPC: 1.69514 cumulative IPC: 1.54903 (Simulation time: 1 hr 20 min 40 sec) 
Heartbeat CPU 0 instructions: 780000002 cycles: 361952612 heartbeat IPC: 1.562 cumulative IPC: 1.54949 (Simulation time: 1 hr 21 min 24 sec) 
Heartbeat CPU 0 instructions: 790000001 cycles: 369978275 heartbeat IPC: 1.246 cumulative IPC: 1.53658 (Simulation time: 1 hr 22 min 14 sec) 
Heartbeat CPU 0 instructions: 800000004 cycles: 376232311 heartbeat IPC: 1.59897 cumulative IPC: 1.53859 (Simulation time: 1 hr 23 min 21 sec) 
Heartbeat CPU 0 instructions: 810000004 cycles: 382359022 heartbeat IPC: 1.6322 cumulative IPC: 1.54144 (Simulation time: 1 hr 24 min 26 sec) 
Heartbeat CPU 0 instructions: 820000000 cycles: 388741342 heartbeat IPC: 1.56683 cumulative IPC: 1.54222 (Simulation time: 1 hr 25 min 9 sec) 
Heartbeat CPU 0 instructions: 830000001 cycles: 396937381 heartbeat IPC: 1.2201 cumulative IPC: 1.52998 (Simulation time: 1 hr 26 min 8 sec) 
Heartbeat CPU 0 instructions: 840000002 cycles: 403152986 heartbeat IPC: 1.60885 cumulative IPC: 1.53219 (Simulation time: 1 hr 27 min 21 sec) 
Heartbeat CPU 0 instructions: 850000002 cycles: 409465028 heartbeat IPC: 1.58427 cumulative IPC: 1.53363 (Simulation time: 1 hr 28 min 32 sec) 
Heartbeat CPU 0 instructions: 860000001 cycles: 415410579 heartbeat IPC: 1.68193 cumulative IPC: 1.53739 (Simulation time: 1 hr 29 min 17 sec) 
Heartbeat CPU 0 instructions: 870000001 cycles: 423685550 heartbeat IPC: 1.20846 cumulative IPC: 1.52617 (Simulation time: 1 hr 30 min 6 sec) 
Heartbeat CPU 0 instructions: 880000002 cycles: 429787375 heartbeat IPC: 1.63885 cumulative IPC: 1.52893 (Simulation time: 1 hr 31 min 13 sec) 
Heartbeat CPU 0 instructions: 890000002 cycles: 435989714 heartbeat IPC: 1.6123 cumulative IPC: 1.53096 (Simulation time: 1 hr 32 min 20 sec) 
Heartbeat CPU 0 instructions: 900000004 cycles: 442827477 heartbeat IPC: 1.46247 cumulative IPC: 1.52917 (Simulation time: 1 hr 33 min 2 sec) 
Heartbeat CPU 0 instructions: 910000004 cycles: 450856553 heartbeat IPC: 1.24547 cumulative IPC: 1.52072 (Simulation time: 1 hr 33 min 46 sec) 
Heartbeat CPU 0 instructions: 920000001 cycles: 456319950 heartbeat IPC: 1.83036 cumulative IPC: 1.52687 (Simulation time: 1 hr 34 min 28 sec) 
Heartbeat CPU 0 instructions: 930000001 cycles: 461782870 heartbeat IPC: 1.83052 cumulative IPC: 1.53279 (Simulation time: 1 hr 35 min 15 sec) 
Heartbeat CPU 0 instructions: 940000004 cycles: 467265466 heartbeat IPC: 1.82395 cumulative IPC: 1.53837 (Simulation time: 1 hr 35 min 59 sec) 
Heartbeat CPU 0 instructions: 950000003 cycles: 473045777 heartbeat IPC: 1.73001 cumulative IPC: 1.54216 (Simulation time: 1 hr 36 min 43 sec) 
Heartbeat CPU 0 instructions: 960000000 cycles: 481069917 heartbeat IPC: 1.24624 cumulative IPC: 1.53424 (Simulation time: 1 hr 37 min 28 sec) 
Heartbeat CPU 0 instructions: 970000003 cycles: 486831926 heartbeat IPC: 1.73551 cumulative IPC: 1.53804 (Simulation time: 1 hr 38 min 12 sec) 
Heartbeat CPU 0 instructions: 980000000 cycles: 492204966 heartbeat IPC: 1.86114 cumulative IPC: 1.54362 (Simulation time: 1 hr 38 min 56 sec) 
Heartbeat CPU 0 instructions: 990000000 cycles: 497583349 heartbeat IPC: 1.85929 cumulative IPC: 1.54899 (Simulation time: 1 hr 39 min 41 sec) 
Heartbeat CPU 0 instructions: 1000000001 cycles: 502519450 heartbeat IPC: 2.02589 cumulative IPC: 1.55632 (Simulation time: 1 hr 40 min 22 sec) 
Heartbeat CPU 0 instructions: 1010000000 cycles: 510459964 heartbeat IPC: 1.25936 cumulative IPC: 1.54915 (Simulation time: 1 hr 41 min 6 sec) 
Heartbeat CPU 0 instructions: 1020000004 cycles: 517146100 heartbeat IPC: 1.49563 cumulative IPC: 1.54809 (Simulation time: 1 hr 42 min 9 sec) 
Heartbeat CPU 0 instructions: 1030000000 cycles: 523270521 heartbeat IPC: 1.63281 cumulative IPC: 1.54961 (Simulation time: 1 hr 43 min 13 sec) 
Heartbeat CPU 0 instructions: 1040000000 cycles: 529784975 heartbeat IPC: 1.53505 cumulative IPC: 1.54933 (Simulation time: 1 hr 44 min 4 sec) 
Heartbeat CPU 0 instructions: 1050000001 cycles: 538895130 heartbeat IPC: 1.09768 cumulative IPC: 1.53783 (Simulation time: 1 hr 44 min 46 sec) 
Heartbeat CPU 0 instructions: 1060000000 cycles: 546525400 heartbeat IPC: 1.31057 cumulative IPC: 1.53308 (Simulation time: 1 hr 45 min 48 sec) 
Heartbeat CPU 0 instructions: 1070000003 cycles: 552779475 heartbeat IPC: 1.59896 cumulative IPC: 1.53419 (Simulation time: 1 hr 47 min 6 sec) 
Heartbeat CPU 0 instructions: 1080000000 cycles: 558446805 heartbeat IPC: 1.7645 cumulative IPC: 1.53765 (Simulation time: 1 hr 48 min 15 sec) 
Heartbeat CPU 0 instructions: 1090000000 cycles: 566037254 heartbeat IPC: 1.31745 cumulative IPC: 1.53331 (Simulation time: 1 hr 48 min 58 sec) 
Heartbeat CPU 0 instructions: 1100000000 cycles: 573850956 heartbeat IPC: 1.2798 cumulative IPC: 1.52826 (Simulation time: 1 hr 49 min 53 sec) 
Heartbeat CPU 0 instructions: 1110000002 cycles: 580003961 heartbeat IPC: 1.62522 cumulative IPC: 1.52976 (Simulation time: 1 hr 50 min 59 sec) 
Heartbeat CPU 0 instructions: 1120000001 cycles: 585922257 heartbeat IPC: 1.68968 cumulative IPC: 1.5321 (Simulation time: 1 hr 52 min 1 sec) 
Heartbeat CPU 0 instructions: 1130000003 cycles: 592274368 heartbeat IPC: 1.57428 cumulative IPC: 1.53275 (Simulation time: 1 hr 52 min 44 sec) 
Heartbeat CPU 0 instructions: 1140000004 cycles: 599996238 heartbeat IPC: 1.29502 cumulative IPC: 1.52836 (Simulation time: 1 hr 53 min 35 sec) 
Heartbeat CPU 0 instructions: 1150000002 cycles: 606244116 heartbeat IPC: 1.60054 cumulative IPC: 1.52943 (Simulation time: 1 hr 54 min 49 sec) 
Heartbeat CPU 0 instructions: 1160000001 cycles: 612348471 heartbeat IPC: 1.63817 cumulative IPC: 1.53097 (Simulation time: 1 hr 55 min 53 sec) 
Heartbeat CPU 0 instructions: 1170000000 cycles: 618728704 heartbeat IPC: 1.56734 cumulative IPC: 1.5315 (Simulation time: 1 hr 56 min 55 sec) 
Heartbeat CPU 0 instructions: 1180000003 cycles: 627174284 heartbeat IPC: 1.18405 cumulative IPC: 1.52492 (Simulation time: 1 hr 57 min 46 sec) 
Heartbeat CPU 0 instructions: 1190000001 cycles: 633427291 heartbeat IPC: 1.59923 cumulative IPC: 1.52594 (Simulation time: 1 hr 58 min 51 sec) 
Heartbeat CPU 0 instructions: 1200000004 cycles: 639611151 heartbeat IPC: 1.61711 cumulative IPC: 1.52717 (Simulation time: 2 hr 0 min 16 sec) 
Heartbeat CPU 0 instructions: 1210000001 cycles: 645563383 heartbeat IPC: 1.68004 cumulative IPC: 1.52913 (Simulation time: 2 hr 1 min 2 sec) 
Heartbeat CPU 0 instructions: 1220000003 cycles: 654007635 heartbeat IPC: 1.18424 cumulative IPC: 1.52297 (Simulation time: 2 hr 1 min 46 sec) 
Heartbeat CPU 0 instructions: 1230000003 cycles: 660755080 heartbeat IPC: 1.48204 cumulative IPC: 1.5224 (Simulation time: 2 hr 2 min 49 sec) 
Heartbeat CPU 0 instructions: 1240000004 cycles: 666967680 heartbeat IPC: 1.60963 cumulative IPC: 1.52351 (Simulation time: 2 hr 3 min 55 sec) 
Heartbeat CPU 0 instructions: 1250000003 cycles: 672802639 heartbeat IPC: 1.71381 cumulative IPC: 1.52577 (Simulation time: 2 hr 4 min 45 sec) 
Heartbeat CPU 0 instructions: 1260000000 cycles: 680224148 heartbeat IPC: 1.34743 cumulative IPC: 1.52312 (Simulation time: 2 hr 5 min 30 sec) 
Heartbeat CPU 0 instructions: 1270000000 cycles: 687545143 heartbeat IPC: 1.36593 cumulative IPC: 1.52085 (Simulation time: 2 hr 6 min 27 sec) 
Heartbeat CPU 0 instructions: 1280000001 cycles: 693801731 heartbeat IPC: 1.59832 cumulative IPC: 1.52179 (Simulation time: 2 hr 7 min 32 sec) 
Heartbeat CPU 0 instructions: 1290000001 cycles: 699574682 heartbeat IPC: 1.73222 cumulative IPC: 1.52414 (Simulation time: 2 hr 8 min 26 sec) 
Heartbeat CPU 0 instructions: 1300000000 cycles: 707837167 heartbeat IPC: 1.21029 cumulative IPC: 1.51921 (Simulation time: 2 hr 9 min 10 sec) 
Heartbeat CPU 0 instructions: 1310000001 cycles: 715553771 heartbeat IPC: 1.29591 cumulative IPC: 1.51599 (Simulation time: 2 hr 10 min 6 sec) 
Heartbeat CPU 0 instructions: 1320000004 cycles: 721766105 heartbeat IPC: 1.6097 cumulative IPC: 1.51706 (Simulation time: 2 hr 11 min 11 sec) 
Heartbeat CPU 0 instructions: 1330000004 cycles: 727437691 heartbeat IPC: 1.76318 cumulative IPC: 1.51962 (Simulation time: 2 hr 12 min 9 sec) 
Heartbeat CPU 0 instructions: 1340000000 cycles: 734641129 heartbeat IPC: 1.38823 cumulative IPC: 1.51791 (Simulation time: 2 hr 12 min 51 sec) 
Heartbeat CPU 0 instructions: 1350000003 cycles: 742409832 heartbeat IPC: 1.28722 cumulative IPC: 1.51471 (Simulation time: 2 hr 13 min 44 sec) 
Heartbeat CPU 0 instructions: 1360000002 cycles: 748547599 heartbeat IPC: 1.62926 cumulative IPC: 1.51595 (Simulation time: 2 hr 14 min 48 sec) 
Heartbeat CPU 0 instructions: 1370000002 cycles: 754401325 heartbeat IPC: 1.70831 cumulative IPC: 1.51792 (Simulation time: 2 hr 15 min 48 sec) 
Heartbeat CPU 0 instructions: 1380000004 cycles: 760559445 heartbeat IPC: 1.62387 cumulative IPC: 1.51904 (Simulation time: 2 hr 16 min 30 sec) 
Heartbeat CPU 0 instructions: 1390000001 cycles: 768457716 heartbeat IPC: 1.2661 cumulative IPC: 1.51564 (Simulation time: 2 hr 17 min 13 sec) 
Heartbeat CPU 0 instructions: 1400000003 cycles: 773893139 heartbeat IPC: 1.83978 cumulative IPC: 1.51862 (Simulation time: 2 hr 17 min 55 sec) 
Heartbeat CPU 0 instructions: 1410000001 cycles: 779336552 heartbeat IPC: 1.83708 cumulative IPC: 1.52151 (Simulation time: 2 hr 18 min 38 sec) 
Heartbeat CPU 0 instructions: 1420000003 cycles: 784795472 heartbeat IPC: 1.83186 cumulative IPC: 1.52432 (Simulation time: 2 hr 19 min 20 sec) 
Heartbeat CPU 0 instructions: 1430000000 cycles: 790185914 heartbeat IPC: 1.85513 cumulative IPC: 1.52725 (Simulation time: 2 hr 20 min 2 sec) 
Heartbeat CPU 0 instructions: 1440000001 cycles: 797585278 heartbeat IPC: 1.35147 cumulative IPC: 1.52514 (Simulation time: 2 hr 20 min 46 sec) 
Heartbeat CPU 0 instructions: 1450000003 cycles: 802972406 heartbeat IPC: 1.85628 cumulative IPC: 1.52801 (Simulation time: 2 hr 21 min 29 sec) 
Heartbeat CPU 0 instructions: 1460000001 cycles: 808353751 heartbeat IPC: 1.85827 cumulative IPC: 1.53084 (Simulation time: 2 hr 22 min 11 sec) 
Heartbeat CPU 0 instructions: 1470000001 cycles: 813747399 heartbeat IPC: 1.85403 cumulative IPC: 1.5336 (Simulation time: 2 hr 22 min 54 sec) 
Heartbeat CPU 0 instructions: 1480000000 cycles: 819633581 heartbeat IPC: 1.69889 cumulative IPC: 1.53512 (Simulation time: 2 hr 23 min 33 sec) 
Heartbeat CPU 0 instructions: 1490000002 cycles: 827929869 heartbeat IPC: 1.20536 cumulative IPC: 1.53089 (Simulation time: 2 hr 24 min 18 sec) 
Heartbeat CPU 0 instructions: 1500000000 cycles: 834054832 heartbeat IPC: 1.63266 cumulative IPC: 1.53185 (Simulation time: 2 hr 25 min 21 sec) 
Heartbeat CPU 0 instructions: 1510000000 cycles: 840120944 heartbeat IPC: 1.6485 cumulative IPC: 1.53292 (Simulation time: 2 hr 26 min 24 sec) 
Heartbeat CPU 0 instructions: 1520000003 cycles: 846415705 heartbeat IPC: 1.58862 cumulative IPC: 1.53345 (Simulation time: 2 hr 27 min 9 sec) 
Heartbeat CPU 0 instructions: 1530000001 cycles: 854460827 heartbeat IPC: 1.24299 cumulative IPC: 1.52998 (Simulation time: 2 hr 27 min 52 sec) 
Heartbeat CPU 0 instructions: 1540000001 cycles: 861790022 heartbeat IPC: 1.36441 cumulative IPC: 1.52819 (Simulation time: 2 hr 28 min 48 sec) 
Heartbeat CPU 0 instructions: 1550000003 cycles: 867856547 heartbeat IPC: 1.64839 cumulative IPC: 1.52926 (Simulation time: 2 hr 29 min 51 sec) 
Heartbeat CPU 0 instructions: 1560000002 cycles: 873634367 heartbeat IPC: 1.73076 cumulative IPC: 1.53094 (Simulation time: 2 hr 30 min 47 sec) 
Heartbeat CPU 0 instructions: 1570000002 cycles: 882762636 heartbeat IPC: 1.0955 cumulative IPC: 1.52527 (Simulation time: 2 hr 31 min 28 sec) 
Heartbeat CPU 0 instructions: 1580000002 cycles: 890772473 heartbeat IPC: 1.24846 cumulative IPC: 1.52215 (Simulation time: 2 hr 32 min 17 sec) 
Heartbeat CPU 0 instructions: 1590000004 cycles: 896952384 heartbeat IPC: 1.61815 cumulative IPC: 1.52298 (Simulation time: 2 hr 33 min 21 sec) 
Heartbeat CPU 0 instructions: 1600000002 cycles: 903055410 heartbeat IPC: 1.63853 cumulative IPC: 1.52395 (Simulation time: 2 hr 34 min 25 sec) 
Heartbeat CPU 0 instructions: 1610000002 cycles: 908687869 heartbeat IPC: 1.77542 cumulative IPC: 1.5259 (Simulation time: 2 hr 35 min 6 sec) 
Heartbeat CPU 0 instructions: 1620000000 cycles: 916564958 heartbeat IPC: 1.2695 cumulative IPC: 1.52315 (Simulation time: 2 hr 35 min 54 sec) 
Heartbeat CPU 0 instructions: 1630000002 cycles: 922666187 heartbeat IPC: 1.63901 cumulative IPC: 1.52411 (Simulation time: 2 hr 36 min 57 sec) 
Heartbeat CPU 0 instructions: 1640000001 cycles: 928860810 heartbeat IPC: 1.6143 cumulative IPC: 1.52485 (Simulation time: 2 hr 38 min 2 sec) 
Heartbeat CPU 0 instructions: 1650000000 cycles: 934751323 heartbeat IPC: 1.69764 cumulative IPC: 1.5262 (Simulation time: 2 hr 38 min 45 sec) 
Heartbeat CPU 0 instructions: 1660000000 cycles: 942590013 heartbeat IPC: 1.27572 cumulative IPC: 1.52363 (Simulation time: 2 hr 39 min 27 sec) 
Heartbeat CPU 0 instructions: 1670000002 cycles: 948843075 heartbeat IPC: 1.59922 cumulative IPC: 1.52424 (Simulation time: 2 hr 40 min 32 sec) 
Heartbeat CPU 0 instructions: 1680000003 cycles: 955012184 heartbeat IPC: 1.62098 cumulative IPC: 1.52501 (Simulation time: 2 hr 41 min 36 sec) 
Heartbeat CPU 0 instructions: 1690000003 cycles: 960899999 heartbeat IPC: 1.69842 cumulative IPC: 1.52632 (Simulation time: 2 hr 42 min 23 sec) 
Heartbeat CPU 0 instructions: 1700000001 cycles: 968750295 heartbeat IPC: 1.27384 cumulative IPC: 1.52381 (Simulation time: 2 hr 43 min 6 sec) 
Heartbeat CPU 0 instructions: 1710000004 cycles: 975639755 heartbeat IPC: 1.45149 cumulative IPC: 1.52318 (Simulation time: 2 hr 44 min 6 sec) 
Heartbeat CPU 0 instructions: 1720000002 cycles: 981766804 heartbeat IPC: 1.63211 cumulative IPC: 1.52401 (Simulation time: 2 hr 45 min 10 sec) 
Heartbeat CPU 0 instructions: 1730000004 cycles: 987533681 heartbeat IPC: 1.73404 cumulative IPC: 1.52551 (Simulation time: 2 hr 46 min 1 sec) 
Heartbeat CPU 0 instructions: 1740000000 cycles: 994669598 heartbeat IPC: 1.40136 cumulative IPC: 1.52442 (Simulation time: 2 hr 46 min 45 sec) 
Heartbeat CPU 0 instructions: 1750000000 cycles: 1002139306 heartbeat IPC: 1.33874 cumulative IPC: 1.52273 (Simulation time: 2 hr 47 min 41 sec) 
Heartbeat CPU 0 instructions: 1760000004 cycles: 1008228479 heartbeat IPC: 1.64226 cumulative IPC: 1.52362 (Simulation time: 2 hr 48 min 45 sec) 
Heartbeat CPU 0 instructions: 1770000000 cycles: 1013931861 heartbeat IPC: 1.75334 cumulative IPC: 1.52519 (Simulation time: 2 hr 49 min 40 sec) 
Heartbeat CPU 0 instructions: 1780000003 cycles: 1021253610 heartbeat IPC: 1.36579 cumulative IPC: 1.5238 (Simulation time: 2 hr 50 min 23 sec) 
Heartbeat CPU 0 instructions: 1790000003 cycles: 1029144473 heartbeat IPC: 1.26729 cumulative IPC: 1.52141 (Simulation time: 2 hr 51 min 15 sec) 
Heartbeat CPU 0 instructions: 1800000000 cycles: 1035191018 heartbeat IPC: 1.65384 cumulative IPC: 1.52235 (Simulation time: 2 hr 52 min 18 sec) 
Heartbeat CPU 0 instructions: 1810000002 cycles: 1041028344 heartbeat IPC: 1.71311 cumulative IPC: 1.52364 (Simulation time: 2 hr 53 min 18 sec) 
Heartbeat CPU 0 instructions: 1820000002 cycles: 1047376416 heartbeat IPC: 1.57528 cumulative IPC: 1.52402 (Simulation time: 2 hr 53 min 59 sec) 
Heartbeat CPU 0 instructions: 1830000002 cycles: 1055510040 heartbeat IPC: 1.22946 cumulative IPC: 1.52128 (Simulation time: 2 hr 54 min 48 sec) 
Heartbeat CPU 0 instructions: 1840000003 cycles: 1061632515 heartbeat IPC: 1.63333 cumulative IPC: 1.52206 (Simulation time: 2 hr 55 min 52 sec) 
Heartbeat CPU 0 instructions: 1850000001 cycles: 1067643897 heartbeat IPC: 1.66351 cumulative IPC: 1.52302 (Simulation time: 2 hr 56 min 55 sec) 
Heartbeat CPU 0 instructions: 1860000003 cycles: 1073755547 heartbeat IPC: 1.63622 cumulative IPC: 1.5238 (Simulation time: 2 hr 57 min 37 sec) 
Heartbeat CPU 0 instructions: 1870000004 cycles: 1081867569 heartbeat IPC: 1.23274 cumulative IPC: 1.52118 (Simulation time: 2 hr 58 min 20 sec) 
Heartbeat CPU 0 instructions: 1880000003 cycles: 1087299228 heartbeat IPC: 1.84106 cumulative IPC: 1.52309 (Simulation time: 2 hr 59 min 2 sec) 
Heartbeat CPU 0 instructions: 1890000000 cycles: 1092730924 heartbeat IPC: 1.84105 cumulative IPC: 1.52499 (Simulation time: 2 hr 59 min 44 sec) 
Heartbeat CPU 0 instructions: 1900000002 cycles: 1098163360 heartbeat IPC: 1.8408 cumulative IPC: 1.52686 (Simulation time: 3 hr 0 min 26 sec) 
Heartbeat CPU 0 instructions: 1910000000 cycles: 1103653136 heartbeat IPC: 1.82157 cumulative IPC: 1.52861 (Simulation time: 3 hr 1 min 7 sec) 
Heartbeat CPU 0 instructions: 1920000001 cycles: 1111540797 heartbeat IPC: 1.2678 cumulative IPC: 1.5264 (Simulation time: 3 hr 1 min 49 sec) 
Heartbeat CPU 0 instructions: 1930000002 cycles: 1117656439 heartbeat IPC: 1.63515 cumulative IPC: 1.52711 (Simulation time: 3 hr 2 min 32 sec) 
Heartbeat CPU 0 instructions: 1940000003 cycles: 1123021453 heartbeat IPC: 1.86393 cumulative IPC: 1.52903 (Simulation time: 3 hr 3 min 14 sec) 
Heartbeat CPU 0 instructions: 1950000002 cycles: 1128394896 heartbeat IPC: 1.861 cumulative IPC: 1.53091 (Simulation time: 3 hr 3 min 56 sec) 
Heartbeat CPU 0 instructions: 1960000000 cycles: 1133382233 heartbeat IPC: 2.00508 cumulative IPC: 1.5334 (Simulation time: 3 hr 4 min 37 sec) 
Heartbeat CPU 0 instructions: 1970000004 cycles: 1140891681 heartbeat IPC: 1.33166 cumulative IPC: 1.53182 (Simulation time: 3 hr 5 min 18 sec) 
Heartbeat CPU 0 instructions: 1980000000 cycles: 1148277510 heartbeat IPC: 1.35394 cumulative IPC: 1.53046 (Simulation time: 3 hr 6 min 12 sec) 
Heartbeat CPU 0 instructions: 1990000000 cycles: 1154078222 heartbeat IPC: 1.72393 cumulative IPC: 1.53161 (Simulation time: 3 hr 7 min 11 sec) 
*** Reached end of trace: traces/464.h264ref-64B.champsimtrace.xz
Heartbeat CPU 0 instructions: 2000000001 cycles: 1159499281 heartbeat IPC: 1.84466 cumulative IPC: 1.53335 (Simulation time: 3 hr 8 min 5 sec) 
Finished CPU 0 instructions: 1500000000 cycles: 978251343 cumulative IPC: 1.53335 (Simulation time: 3 hr 8 min 5 sec) 

ChampSim completed all CPUs

Region of Interest Statistics

CPU 0 cumulative IPC: 1.53335 instructions: 1500000000 cycles: 978251343
cpu0_DTLB TOTAL     ACCESS:  326221963  HIT:  325766756  MISS:     455207
cpu0_DTLB LOAD      ACCESS:  270290960  HIT:  269884033  MISS:     406927
cpu0_DTLB RFO       ACCESS:   55931003  HIT:   55882723  MISS:      48280
cpu0_DTLB PREFETCH  ACCESS:          0  HIT:          0  MISS:          0
cpu0_DTLB WRITEBACK ACCESS:          0  HIT:          0  MISS:          0
cpu0_DTLB TRANSLATION ACCESS:          0  HIT:          0  MISS:          0
cpu0_DTLB PREFETCH  REQUESTED:          0  ISSUED:          0  USEFUL:          0  USELESS:          0
cpu0_DTLB AVERAGE MISS LATENCY: 9.55899 cycles
cpu0_ITLB TOTAL     ACCESS:  116529623  HIT:  116529407  MISS:        216
cpu0_ITLB LOAD      ACCESS:  116529623  HIT:  116529407  MISS:        216
cpu0_ITLB RFO       ACCESS:          0  HIT:          0  MISS:          0
cpu0_ITLB PREFETCH  ACCESS:          0  HIT:          0  MISS:          0
cpu0_ITLB WRITEBACK ACCESS:          0  HIT:          0  MISS:          0
cpu0_ITLB TRANSLATION ACCESS:          0  HIT:          0  MISS:          0
cpu0_ITLB PREFETCH  REQUESTED:          0  ISSUED:          0  USEFUL:          0  USELESS:          0
cpu0_ITLB AVERAGE MISS LATENCY: 47.7731 cycles
cpu0_L1I TOTAL     ACCESS:   49782797  HIT:   49684118  MISS:      98679
cpu0_L1I LOAD      ACCESS:   49782797  HIT:   49684118  MISS:      98679
cpu0_L1I RFO       ACCESS:          0  HIT:          0  MISS:          0
cpu0_L1I PREFETCH  ACCESS:          0  HIT:          0  MISS:          0
cpu0_L1I WRITEBACK ACCESS:          0  HIT:          0  MISS:          0
cpu0_L1I TRANSLATION ACCESS:          0  HIT:          0  MISS:          0
cpu0_L1I PREFETCH  REQUESTED:          0  ISSUED:          0  USEFUL:          0  USELESS:          0
cpu0_L1I AVERAGE MISS LATENCY: 84.9155 cycles
cpu0_STLB TOTAL     ACCESS:     455423  HIT:     449455  MISS:       5968
cpu0_STLB LOAD      ACCESS:     407143  HIT:     403052  MISS:       4091
cpu0_STLB RFO       ACCESS:      48280  HIT:      46403  MISS:       1877
cpu0_STLB PREFETCH  ACCESS:          0  HIT:          0  MISS:          0
cpu0_STLB WRITEBACK ACCESS:          0  HIT:          0  MISS:          0
cpu0_STLB TRANSLATION ACCESS:          0  HIT:          0  MISS:          0
cpu0_STLB PREFETCH  REQUESTED:          0  ISSUED:          0  USEFUL:          0  USELESS:          0
cpu0_STLB AVERAGE MISS LATENCY: 43.2493 cycles
cpu0_L1D TOTAL     ACCESS:  354011075  HIT:  349996167  MISS:    4014908
cpu0_L1D LOAD      ACCESS:  252450946  HIT:  249546815  MISS:    2904131
cpu0_L1D RFO       ACCESS:  101554493  HIT:  100445831  MISS:    1108662
cpu0_L1D PREFETCH  ACCESS:          0  HIT:          0  MISS:          0
cpu0_L1D WRITEBACK ACCESS:          0  HIT:          0  MISS:          0
cpu0_L1D TRANSLATION ACCESS:       5636  HIT:       3521  MISS:       2115
cpu0_L1D PREFETCH  REQUESTED:          0  ISSUED:          0  USEFUL:          0  USELESS:          0
cpu0_L1D AVERAGE MISS LATENCY: 69.6728 cycles
cpu0_L2C TOTAL     ACCESS:    5237832  HIT:    2891708  MISS:    2346124
cpu0_L2C LOAD      ACCESS:    3002808  HIT:    1688419  MISS:    1314389
cpu0_L2C RFO       ACCESS:    1108655  HIT:      78957  MISS:    1029698
cpu0_L2C PREFETCH  ACCESS:          0  HIT:          0  MISS:          0
cpu0_L2C WRITEBACK ACCESS:    1124254  HIT:    1122558  MISS:       1696
cpu0_L2C TRANSLATION ACCESS:       2115  HIT:       1774  MISS:        341
cpu0_L2C PREFETCH  REQUESTED:          0  ISSUED:          0  USEFUL:          0  USELESS:          0
cpu0_L2C AVERAGE MISS LATENCY: 103.489 cycles
LLC TOTAL     ACCESS:    3392068  HIT:    2475918  MISS:     916150
LLC LOAD      ACCESS:    1314389  HIT:     816191  MISS:     498198
LLC RFO       ACCESS:    1029698  HIT:     615093  MISS:     414605
LLC PREFETCH  ACCESS:          0  HIT:          0  MISS:          0
LLC WRITEBACK ACCESS:    1047640  HIT:    1044475  MISS:       3165
LLC TRANSLATION ACCESS:        341  HIT:        159  MISS:        182
LLC PREFETCH  REQUESTED:          0  ISSUED:          0  USEFUL:          0  USELESS:          0
LLC AVERAGE MISS LATENCY: 211.279 cycles
~~~~~~~~~~Reuse Distance Profiler output~~~~~~~~~~
0	75045216	28978752
1	51867408	33756128
2	61607680	49258336
3	41441088	35282592
4	34778576	29927072
5	20225616	17448368
6	16698672	13862288
7	14344624	11861776
8	13953760	12007856
9	9775040	8402480
10	8275360	7132656
11	7566832	6507232
12	6785936	5670880
13	6102128	5178864
14	4614160	3153408
15	3570144	2579488
16	3813824	2796336
17	3579520	2789056
18	3345424	2642128
19	3208832	2482944
20	3000656	2205680
21	2865056	2045632
22	2722192	1889504
23	2539392	1736272
24	2362976	1589904
25	2221056	1512880
26	2162160	1479504
27	1966192	1299296
28	1959056	1403520
29	1642368	1225248
30	1472944	1137008
31	1883664	1605440
32	1181472	952112
33	1195968	1030352
34	1258400	1110112
35	1162304	1015488
36	1250528	1063632
37	1350624	1120800
38	1471152	1210848
39	1414800	1172864
40	1491120	1218048
41	1646800	1311904
42	1694960	1332720
43	1746128	1358752
44	1687840	1292128
45	1999648	1524448
46	1964608	1447520
47	1777232	1412240
48	1487120	1189136
49	1446784	1240336
50	1200256	1028080
51	1204368	1040416
52	1185792	1026032
53	1242416	968464
54	1102400	878672
55	1126656	832928
56	703904	615216
57	599712	518032
58	671936	604832
59	561584	495264
60	534352	470496
61	458720	406064
62	379648	325040
63	350144	309232
64	725184	663696
66	799200	674784
68	732576	565472
70	508448	428016
72	434992	377632
74	465392	385248
76	549552	428480
78	588800	496672
80	549072	476416
82	571408	482592
84	545008	481472
86	454224	409744
88	472960	406032
90	488000	404800
92	505312	399168
94	564464	399392
96	508864	372224
98	586080	439232
100	592064	419584
102	649712	475216
104	604048	402352
106	563088	367376
108	487584	330384
110	396800	281152
112	395872	279936
114	457456	283664
116	433424	262432
118	400928	262112
120	461568	341392
122	434784	342288
124	518352	384512
126	542336	393152
128	1170896	997504
132	1040928	949760
136	1226384	1075936
140	667632	587808
144	561248	466208
148	550144	440272
152	538320	361968
156	367392	329632
160	430576	401552
164	353424	310800
168	339840	276432
172	182384	166528
176	270736	253456
180	233152	213824
184	177888	167424
188	150896	137616
192	150240	112256
196	153360	138528
200	174992	142512
204	148816	114320
208	139872	109040
212	112416	96896
216	101520	90464
220	125648	104656
224	97264	78064
228	123424	101744
232	96688	81680
236	103664	85984
240	97296	82544
244	93584	83296
248	93632	74416
252	110080	82176
256	241296	198528
264	329008	303024
272	428752	416192
280	363840	347760
288	254256	245712
296	188672	178000
304	182272	164416
312	172912	155088
320	191648	177456
328	247952	223728
336	289168	267872
344	263552	248592
352	260816	234560
360	312848	260608
368	365024	285360
376	393184	283856
384	444384	313904
392	507376	346128
400	548480	374608
408	601712	421616
416	686080	484544
424	722624	508336
432	718768	499280
440	679984	457216
448	651568	394560
456	652160	371824
464	746224	394816
472	832272	415152
480	923712	428272
488	949200	403808
496	847328	345408
504	621072	266096
512	567104	309216
528	313648	259136
544	333456	296624
560	265568	228320
576	219840	185136
592	221088	180416
608	249776	186928
624	222800	182112
640	246224	203504
656	287760	239280
672	351120	307872
688	365520	317472
704	367456	327312
720	433664	400112
736	591584	500976
752	692592	538160
768	801248	562320
784	816320	557136
800	778816	507072
816	792768	489552
832	780496	492304
848	725904	451024
864	717776	443440
880	586720	427344
896	516864	447712
912	532064	495744
928	545552	518496
944	592624	562592
960	654864	628464
976	666480	644736
992	532944	521376
1008	267008	257344
1024	162976	143264
1056	139104	120896
1088	187376	171872
1120	167168	154528
1152	160848	148912
1184	165696	149632
1216	168160	151312
1248	127648	116864
1280	100320	90272
1312	98896	84176
1344	115424	98224
1376	118224	98560
1408	144192	127120
1440	149936	130640
1472	165856	148576
1504	246832	230048
1536	359328	342928
1568	435184	418400
1600	458672	440672
1632	439584	419808
1664	352512	335568
1696	249440	235456
1728	165344	151232
1760	97248	83600
1792	73952	62240
1824	77056	66448
1856	63776	53904
1888	66368	57392
1920	66976	59120
1952	56304	47904
1984	52096	43488
2016	51520	43440
2048	91760	79360
2112	86320	75552
2176	63216	52064
2240	55920	44000
2304	79856	69920
2368	80432	69360
2432	67760	58944
2496	73280	63728
2560	53824	44016
2624	50736	42464
2688	50336	42400
2752	35232	28576
2816	28496	22880
2880	26352	21648
2944	29152	24256
3008	33360	28656
3072	47104	43264
3136	36720	32640
3200	33568	29216
3264	31232	26944
3328	35600	31552
3392	34208	30288
3456	36976	33328
3520	40416	36976
3584	40464	36512
3648	38448	35392
3712	36432	33360
3776	38992	35408
3840	39184	36528
3904	45008	42096
3968	47408	43856
4032	42256	39248
4096	76464	70704
4224	64272	59712
4352	84528	78912
4480	88016	82720
4608	94160	88832
4736	93072	87648
4864	82576	76448
4992	88224	83344
5120	89600	85040
5248	78592	73440
5376	82816	76816
5504	85536	80048
5632	90992	86208
5760	79776	74800
5888	69936	64944
6016	70736	65584
6144	63856	59424
6272	71920	68208
6400	64128	60688
6528	58848	55472
6656	60480	57104
6784	49392	46272
6912	50240	46912
7040	59008	56080
7168	60352	57808
7296	56960	54320
7424	37856	35360
7552	34672	32432
7680	38736	36496
7808	38816	36704
7936	38352	35664
8064	35408	32768
8192	74336	70432
8448	62944	60128
8704	60272	56832
8960	52400	49648
9216	52224	49024
9472	51888	48512
9728	31120	28288
9984	32464	29648
10240	41136	38272
10496	42752	39568
10752	41648	38144
11008	38304	35568
11264	37824	35632
11520	31376	29104
11776	29792	27600
12032	27840	25616
12288	29520	27488
12544	29408	27712
12800	28192	26576
13056	27904	26496
13312	26432	24928
13568	22784	20864
13824	29872	28240
14080	33680	31872
14336	23232	21392
14592	20048	18464
14848	17104	16032
15104	17264	15840
15360	16944	15056
15616	17296	16096
15872	17440	16320
16128	23312	22336
16384	62304	59856
16896	37984	35504
17408	35552	32832
17920	35664	32400
18432	63200	59424
18944	45072	41504
19456	43808	39792
19968	39184	36608
20480	30096	28464
20992	52288	50752
21504	21776	20608
22016	18720	17696
22528	19840	18784
23040	24032	23184
23552	22000	21136
24064	15024	14064
24576	15200	13712
25088	13664	12736
25600	16768	15616
26112	8608	7792
26624	7856	7392
27136	7856	7280
27648	10240	9616
28160	15904	15280
28672	7296	6608
29184	7232	6816
29696	7952	7280
30208	13744	13376
30720	15264	14672
31232	9456	8256
31744	9424	8336
32256	11008	9168
32768	35904	31616
33792	18240	15424
34816	34288	32016
35840	18528	15600
36864	20512	18032
37888	14784	11920
38912	16896	14592
39936	15136	13072
40960	13680	10880
41984	12400	10176
43008	12192	10992
44032	9056	8064
45056	7904	7600
46080	8368	7872
47104	8816	8512
48128	6304	5968
49152	5760	5184
50176	4000	3696
51200	4864	4320
52224	5616	4864
53248	6096	5264
54272	5664	4960
55296	4704	4192
56320	3792	3536
57344	3792	3680
58368	4224	3936
59392	4496	4176
60416	4336	4064
61440	4016	3808
62464	3232	2896
63488	3056	2880
64512	3488	3184
65536	7968	7456
67584	6608	5856
69632	5952	5520
71680	7936	7408
73728	5936	5632
75776	5776	5248
77824	7504	7040
79872	6864	6448
81920	5472	5104
83968	5936	5504
86016	4912	4576
88064	4944	4720
90112	5296	4976
92160	6656	6144
94208	7184	6592
96256	7072	6528
98304	8000	7392
100352	8816	8208
102400	8560	8160
104448	8704	8320
106496	9904	9008
108544	12608	11488
110592	14464	13712
112640	15344	14448
114688	16640	15680
116736	18032	17072
118784	18176	17216
120832	19744	18736
122880	19424	18352
124928	20048	18496
126976	20976	19552
129024	19488	17728
131072	36640	33792
135168	30640	28112
139264	27888	25984
143360	27392	25920
147456	27936	26496
151552	24800	23600
155648	25856	24528
159744	25008	23280
163840	25424	23696
167936	23616	21744
172032	20656	19440
176128	20320	18896
180224	21712	20192
184320	18480	17600
188416	18960	18096
192512	18880	18144
196608	15792	14752
200704	13040	12368
204800	9904	9456
208896	10400	9968
212992	9856	9392
217088	9552	9120
221184	8912	8368
225280	8880	8032
229376	9184	8336
233472	8240	7744
237568	7472	6880
241664	8016	7424
245760	9232	8448
249856	8704	7920
253952	9264	8048
258048	7792	6896
262144	16736	14656
270336	17584	14816
278528	17440	14176
286720	19376	15360
294912	15968	13152
303104	15280	13040
311296	16128	13248
319488	14160	12336
327680	13568	12336
335872	11904	11216
344064	10752	10048
352256	12608	11936
360448	12848	12416
368640	13824	13600
376832	16560	16160
385024	15696	15168
393216	13072	12576
401408	12224	12064
409600	9360	9024
417792	9616	9424
425984	9232	9120
434176	8832	8496
442368	8656	8464
450560	9168	8784
458752	9920	9648
466944	10848	10528
475136	8176	7888
483328	8064	7632
491520	11904	11312
499712	12112	11504
507904	10208	9488
516096	8768	7968
524288	20448	18512
540672	21424	19840
557056	16352	15504
573440	31056	29808
589824	16976	15776
606208	7136	6880
622592	6272	6080
638976	6240	5872
655360	6704	6080
671744	8656	7920
688128	11280	10688
704512	10704	10096
720896	11888	11360
737280	7696	7360
753664	6480	6288
770048	4816	4656
786432	4624	4480
802816	4560	4512
819200	4704	4688
835584	4544	4496
851968	4624	4544
868352	4960	4608
884736	5200	4736
901120	3152	2720
917504	2608	2432
933888	3152	2752
950272	3888	3408
966656	6512	6160
983040	10608	10160
999424	8880	8400
1015808	6176	5792
1032192	4272	4160
1048576	5488	5184
1081344	4256	3984
1114112	4096	3920
1146880	7968	7664
1179648	6640	6224
1212416	4864	4528
1245184	4864	4688
1277952	4720	4464
1310720	7232	6976
1343488	7472	7216
1376256	7232	7040
1409024	6784	6384
1441792	6736	6256
1474560	7088	6672
1507328	5264	4688
1540096	7024	6224
1572864	6352	5712
1605632	7216	6592
1638400	7152	6336
1671168	5216	4240
1703936	7792	6576
1736704	8352	7264
1769472	7696	6816
1802240	6560	5040
1835008	7984	6992
1867776	8464	7520
1900544	8416	7440
1933312	8192	7472
1966080	5872	5056
1998848	5872	4816
2031616	5376	4080
2064384	6672	5648
2097152	13328	11216
2162688	15744	12208
2228224	17104	12384
2293760	16976	12512
2359296	17376	12336
2424832	18816	14288
2490368	21744	16496
2555904	17376	13344
2621440	16208	10864
2686976	16464	11488
2752512	19008	13024
2818048	20560	13616
2883584	21280	13600
2949120	18752	10784
3014656	28512	19808
3080192	22496	14784
3145728	21440	13312
3211264	21024	13424
3276800	21584	13408
3342336	22352	13968
3407872	23456	14272
3473408	23568	13264
3538944	25552	15056
3604480	27312	16432
3670016	28240	18160
3735552	20864	10720
3801088	23552	13584
3866624	25072	13360
3932160	27376	15488
3997696	25760	14848
4063232	27408	13376
4128768	27536	16096
4194304	56448	31552
4325376	46352	23344
4456448	53872	30064
4587520	54064	27872
4718592	58304	31376
4849664	47984	23520
4980736	54480	29168
5111808	54784	28448
5242880	56992	31888
5373952	54640	28896
5505024	50240	25456
5636096	50768	25632
5767168	53264	25920
5898240	53792	27168
6029312	47760	21968
6160384	47760	23184
6291456	50176	24704
6422528	54176	27776
6553600	45088	20768
6684672	43136	19584
6815744	42416	18256
6946816	45104	18416
7077888	44960	20608
7208960	38416	16256
7340032	36032	14512
7471104	36928	14288
7602176	35344	14048
7733248	31904	11168
7864320	28928	10272
7995392	29632	11552
8126464	26864	9168
8257536	26032	10032
8388608	46096	15216
8650752	43152	14112
8912896	42992	16944
9175040	41792	17648
9437184	43680	20448
9699328	41872	19424
9961472	42560	18832
10223616	40256	15376
10485760	26240	10832
10747904	19312	8320
11010048	19232	7632
11272192	20784	7280
11534336	14000	5024
11796480	13136	5520
12058624	10672	3184
12320768	10064	2368
12582912	8688	3264
12845056	6432	1152
13107200	5808	1008
13369344	4736	1040
13631488	4656	1200
13893632	6016	2272
14155776	5664	2208
14417920	4896	3168
14680064	6208	3440
14942208	7040	3056
15204352	9392	2528
15466496	7024	2208
15728640	144	112
15990784	96	96
16252928	112	96
16515072	96	80
16777216	304	304
17301504	480	464
17825792	528	384
18350080	272	224
18874368	800	544
19398656	832	592
19922944	544	352
20447232	544	272
20971520	320	144
21495808	144	80
22020096	96	96
22544384	96	0
23068672	48	16
23592960	112	112
24117248	80	80
24641536	16	16
25165824	32	32
25690112	48	32
26214400	128	64
26738688	64	48
27262976	0	0
27787264	80	80
28311552	128	80
28835840	112	80
29360128	160	128
29884416	288	208
30408704	112	80
30932992	64	32
31457280	128	128
31981568	16	16
32505856	80	0
33030144	0	0
33554432	16	16
34603008	0	0
35651584	32	32
36700160	0	0
37748736	32	32
38797312	80	32
39845888	80	32
40894464	64	16
41943040	64	16
42991616	32	32
44040192	160	64
45088768	32	32
46137344	176	16
47185920	0	0
48234496	16	16
49283072	144	96
50331648	64	32
51380224	0	0
52428800	32	32
53477376	0	0
54525952	0	0
55574528	0	0
56623104	0	0
57671680	0	0
58720256	16	16
59768832	32	16
60817408	16	0
61865984	32	16
62914560	0	0
63963136	0	0
65011712	0	0
66060288	0	0
67108864	16	16
69206016	928	912
71303168	3504	3504
73400320	160	160
75497472	96	80
77594624	80	80
79691776	320	320
81788928	768	768
83886080	160	160
85983232	192	192
88080384	224	224
90177536	288	272
92274688	400	368
94371840	160	144
96468992	592	592
98566144	1568	1568
100663296	2640	2480
102760448	1840	1520
104857600	880	880
106954752	1680	1632
109051904	1456	1424
111149056	3072	3072
113246208	1024	976
115343360	480	448
117440512	704	688
119537664	448	448
121634816	1216	1200
123731968	400	384
125829120	448	448
127926272	256	192
130023424	208	208
132120576	320	320
134217728	480	432
138412032	64	48
142606336	496	496
146800640	176	160
150994944	320	256
155189248	144	128
159383552	224	224
163577856	304	304
167772160	32	32
171966464	0	0
176160768	0	0
180355072	16	0
184549376	0	0
188743680	32	0
192937984	0	0
197132288	0	0
201326592	0	0
205520896	0	0
209715200	0	0
213909504	0	0
218103808	0	0
222298112	0	0
226492416	0	0
230686720	16	16
234881024	0	0
239075328	0	0
243269632	0	0
247463936	0	0
251658240	0	0
255852544	48	48
260046848	0	0
264241152	16	16
268435456	0	0
276824064	0	0
285212672	0	0
293601280	0	0
301989888	0	0
310378496	0	0
318767104	16	16
327155712	0	0
335544320	0	0
343932928	16	0
352321536	0	0
360710144	0	0
369098752	0	0
377487360	0	0
385875968	0	0
394264576	0	0
402653184	0	0
411041792	0	0
419430400	0	0
427819008	0	0
436207616	0	0
444596224	0	0
452984832	0	0
461373440	0	0
469762048	0	0
478150656	0	0
486539264	0	0
494927872	0	0
503316480	0	0
511705088	0	0
520093696	0	0
528482304	0	0
536870912	0	0
553648128	0	0
570425344	0	0
587202560	0	0
603979776	0	0
620756992	0	0
637534208	0	0
654311424	0	0
671088640	0	0
687865856	0	0
704643072	0	0
721420288	0	0
738197504	0	0
754974720	0	0
771751936	0	0
788529152	0	0
805306368	0	0
822083584	0	0
838860800	0	0
855638016	0	0
872415232	0	0
889192448	0	0
905969664	0	0
922746880	0	0
939524096	0	0
956301312	0	0
973078528	0	0
989855744	0	0
1006632960	0	0
1023410176	0	0
1040187392	0	0
1056964608	0	0
1073741824	0	0
1107296256	0	0
1140850688	0	0
1174405120	0	0
1207959552	0	0
1241513984	0	0
1275068416	0	0
1308622848	0	0
1342177280	0	0
1375731712	0	0
1409286144	0	0
1442840576	0	0
1476395008	0	0
1509949440	0	0
1543503872	0	0
1577058304	0	0
1610612736	0	0
1644167168	0	0
1677721600	0	0
1711276032	0	0
1744830464	0	0
1778384896	0	0
1811939328	0	0
1845493760	0	0
1879048192	0	0
1912602624	0	0
1946157056	0	0
1979711488	0	0
2013265920	0	0
2046820352	0	0
2080374784	0	0
2113929216	0	0
2147483648	0	0
2214592512	0	0
2281701376	0	0
2348810240	0	0
2415919104	0	0
2483027968	0	0
2550136832	0	0
2617245696	0	0
2684354560	0	0
2751463424	0	0
2818572288	0	0
2885681152	0	0
2952790016	0	0
3019898880	0	0
3087007744	0	0
3154116608	0	0
3221225472	0	0
3288334336	0	0
3355443200	0	0
3422552064	0	0
3489660928	0	0
3556769792	0	0
3623878656	0	0
3690987520	0	0
3758096384	0	0
3825205248	0	0
3892314112	0	0
3959422976	0	0
4026531840	0	0
4093640704	0	0
4160749568	0	0
4227858432	0	0
~~~~~~~~~~Reuse Distance Profiler output end~~~~~~~~~~

DRAM Statistics
 CHANNEL 0
 RQ ROW_BUFFER_HIT:     203603  ROW_BUFFER_MISS:     708477
 DBUS AVG_CONGESTED_CYCLE:    3.92855
 WQ ROW_BUFFER_HIT:      76971  ROW_BUFFER_MISS:     519683  FULL:          0


CPU 0 Branch Prediction Accuracy: 91.8963% MPKI: 7.57974 Average ROB Occupancy at Mispredict: 129.122
Branch type MPKI
BRANCH_DIRECT_JUMP: 2.66667e-06
BRANCH_INDIRECT: 0.00101467
BRANCH_CONDITIONAL: 7.53005
BRANCH_DIRECT_CALL: 0.047102
BRANCH_INDIRECT_CALL: 4.6e-05
BRANCH_RETURN: 0.001528

