
*** ChampSim Multicore Out-of-Order Simulator ***

Warmup Instructions: 500000000
Simulation Instructions: 1500000000
Number of CPUs: 1
Off-chip DRAM Size: 4 GiB Channels: 1 Width: 64-bit Data Rate: 3200 MT/s

VirtualMemory physical capacity: 8588881920 num_ppages: 2096895
VirtualMemory page size: 4096 log2_page_size: 12

CPU 0 runs traces/465.tonto-44B.champsimtrace.xz
CPU 0 Bimodal branch predictor
Basic BTB sets: 1024 ways: 8 indirect buffer size: 4096 RAS size: 64
Initializing LRU.
Initializing LRU.
Initializing LRU.
Initializing LRU.
Initializing rdLRU.
Initializing LRU.
Initializing LRU.
Heartbeat CPU 0 instructions: 10000003 cycles: 2695587 heartbeat IPC: 3.70977 cumulative IPC: 3.70977 (Simulation time: 0 hr 1 min 0 sec) 
Heartbeat CPU 0 instructions: 20000003 cycles: 5493368 heartbeat IPC: 3.57426 cumulative IPC: 3.64075 (Simulation time: 0 hr 2 min 8 sec) 
Heartbeat CPU 0 instructions: 30000003 cycles: 7994791 heartbeat IPC: 3.99772 cumulative IPC: 3.75244 (Simulation time: 0 hr 3 min 1 sec) 
Heartbeat CPU 0 instructions: 40000001 cycles: 10792970 heartbeat IPC: 3.57375 cumulative IPC: 3.70612 (Simulation time: 0 hr 4 min 7 sec) 
Heartbeat CPU 0 instructions: 50000000 cycles: 13389381 heartbeat IPC: 3.85147 cumulative IPC: 3.7343 (Simulation time: 0 hr 4 min 56 sec) 
Heartbeat CPU 0 instructions: 60000003 cycles: 16278852 heartbeat IPC: 3.46084 cumulative IPC: 3.68576 (Simulation time: 0 hr 5 min 41 sec) 
Heartbeat CPU 0 instructions: 70000001 cycles: 19214720 heartbeat IPC: 3.40615 cumulative IPC: 3.64304 (Simulation time: 0 hr 6 min 30 sec) 
Heartbeat CPU 0 instructions: 80000000 cycles: 22232484 heartbeat IPC: 3.31371 cumulative IPC: 3.59834 (Simulation time: 0 hr 7 min 36 sec) 
Heartbeat CPU 0 instructions: 90000001 cycles: 25293458 heartbeat IPC: 3.26693 cumulative IPC: 3.55823 (Simulation time: 0 hr 8 min 45 sec) 
Heartbeat CPU 0 instructions: 100000002 cycles: 27990880 heartbeat IPC: 3.70724 cumulative IPC: 3.57259 (Simulation time: 0 hr 9 min 50 sec) 
Heartbeat CPU 0 instructions: 110000000 cycles: 30594408 heartbeat IPC: 3.84094 cumulative IPC: 3.59543 (Simulation time: 0 hr 10 min 34 sec) 
Heartbeat CPU 0 instructions: 120000000 cycles: 33186866 heartbeat IPC: 3.85734 cumulative IPC: 3.61589 (Simulation time: 0 hr 11 min 15 sec) 
Heartbeat CPU 0 instructions: 130000001 cycles: 35784421 heartbeat IPC: 3.84977 cumulative IPC: 3.63287 (Simulation time: 0 hr 12 min 2 sec) 
Heartbeat CPU 0 instructions: 140000002 cycles: 38325831 heartbeat IPC: 3.93482 cumulative IPC: 3.65289 (Simulation time: 0 hr 13 min 1 sec) 
Heartbeat CPU 0 instructions: 150000001 cycles: 40910480 heartbeat IPC: 3.869 cumulative IPC: 3.66654 (Simulation time: 0 hr 13 min 38 sec) 
Heartbeat CPU 0 instructions: 160000001 cycles: 43495197 heartbeat IPC: 3.8689 cumulative IPC: 3.67857 (Simulation time: 0 hr 14 min 20 sec) 
Heartbeat CPU 0 instructions: 170000001 cycles: 46079971 heartbeat IPC: 3.86881 cumulative IPC: 3.68924 (Simulation time: 0 hr 15 min 2 sec) 
Heartbeat CPU 0 instructions: 180000002 cycles: 48871949 heartbeat IPC: 3.58169 cumulative IPC: 3.68309 (Simulation time: 0 hr 15 min 50 sec) 
Heartbeat CPU 0 instructions: 190000000 cycles: 51379294 heartbeat IPC: 3.98828 cumulative IPC: 3.69799 (Simulation time: 0 hr 16 min 36 sec) 
Heartbeat CPU 0 instructions: 200000001 cycles: 54063123 heartbeat IPC: 3.72602 cumulative IPC: 3.69938 (Simulation time: 0 hr 17 min 28 sec) 
Heartbeat CPU 0 instructions: 210000003 cycles: 56846655 heartbeat IPC: 3.59256 cumulative IPC: 3.69415 (Simulation time: 0 hr 18 min 27 sec) 
Heartbeat CPU 0 instructions: 220000001 cycles: 59461934 heartbeat IPC: 3.82368 cumulative IPC: 3.69985 (Simulation time: 0 hr 19 min 14 sec) 
Heartbeat CPU 0 instructions: 230000002 cycles: 62001277 heartbeat IPC: 3.93803 cumulative IPC: 3.7096 (Simulation time: 0 hr 20 min 1 sec) 
Heartbeat CPU 0 instructions: 240000003 cycles: 64529442 heartbeat IPC: 3.95544 cumulative IPC: 3.71923 (Simulation time: 0 hr 20 min 39 sec) 
Heartbeat CPU 0 instructions: 250000000 cycles: 67034018 heartbeat IPC: 3.99269 cumulative IPC: 3.72945 (Simulation time: 0 hr 21 min 21 sec) 
Heartbeat CPU 0 instructions: 260000000 cycles: 69587729 heartbeat IPC: 3.91587 cumulative IPC: 3.73629 (Simulation time: 0 hr 21 min 57 sec) 
Heartbeat CPU 0 instructions: 270000001 cycles: 72271089 heartbeat IPC: 3.72667 cumulative IPC: 3.73593 (Simulation time: 0 hr 23 min 2 sec) 
Heartbeat CPU 0 instructions: 280000002 cycles: 75052114 heartbeat IPC: 3.5958 cumulative IPC: 3.73074 (Simulation time: 0 hr 24 min 5 sec) 
Heartbeat CPU 0 instructions: 290000004 cycles: 77775902 heartbeat IPC: 3.67136 cumulative IPC: 3.72866 (Simulation time: 0 hr 24 min 59 sec) 
Heartbeat CPU 0 instructions: 300000003 cycles: 80426873 heartbeat IPC: 3.7722 cumulative IPC: 3.7301 (Simulation time: 0 hr 25 min 54 sec) 
Heartbeat CPU 0 instructions: 310000001 cycles: 82986286 heartbeat IPC: 3.90715 cumulative IPC: 3.73556 (Simulation time: 0 hr 26 min 36 sec) 
Heartbeat CPU 0 instructions: 320000002 cycles: 85529418 heartbeat IPC: 3.93216 cumulative IPC: 3.7414 (Simulation time: 0 hr 27 min 17 sec) 
Heartbeat CPU 0 instructions: 330000003 cycles: 88054158 heartbeat IPC: 3.9608 cumulative IPC: 3.74769 (Simulation time: 0 hr 28 min 11 sec) 
Heartbeat CPU 0 instructions: 340000002 cycles: 90593052 heartbeat IPC: 3.93872 cumulative IPC: 3.75305 (Simulation time: 0 hr 28 min 51 sec) 
Heartbeat CPU 0 instructions: 350000000 cycles: 93100779 heartbeat IPC: 3.98767 cumulative IPC: 3.75937 (Simulation time: 0 hr 29 min 27 sec) 
Heartbeat CPU 0 instructions: 360000002 cycles: 95660504 heartbeat IPC: 3.90667 cumulative IPC: 3.76331 (Simulation time: 0 hr 30 min 1 sec) 
Heartbeat CPU 0 instructions: 370000003 cycles: 98213597 heartbeat IPC: 3.91682 cumulative IPC: 3.7673 (Simulation time: 0 hr 30 min 57 sec) 
Heartbeat CPU 0 instructions: 380000003 cycles: 100723429 heartbeat IPC: 3.98433 cumulative IPC: 3.77271 (Simulation time: 0 hr 31 min 34 sec) 
Heartbeat CPU 0 instructions: 390000002 cycles: 103491457 heartbeat IPC: 3.61268 cumulative IPC: 3.76843 (Simulation time: 0 hr 32 min 24 sec) 
Heartbeat CPU 0 instructions: 400000000 cycles: 106177030 heartbeat IPC: 3.7236 cumulative IPC: 3.76729 (Simulation time: 0 hr 33 min 13 sec) 
Heartbeat CPU 0 instructions: 410000003 cycles: 108921431 heartbeat IPC: 3.64378 cumulative IPC: 3.76418 (Simulation time: 0 hr 33 min 54 sec) 
Heartbeat CPU 0 instructions: 420000000 cycles: 111677475 heartbeat IPC: 3.62839 cumulative IPC: 3.76083 (Simulation time: 0 hr 34 min 37 sec) 
Heartbeat CPU 0 instructions: 430000003 cycles: 114265190 heartbeat IPC: 3.86441 cumulative IPC: 3.76318 (Simulation time: 0 hr 35 min 21 sec) 
Heartbeat CPU 0 instructions: 440000002 cycles: 116817724 heartbeat IPC: 3.91768 cumulative IPC: 3.76655 (Simulation time: 0 hr 36 min 16 sec) 
Heartbeat CPU 0 instructions: 450000000 cycles: 119363034 heartbeat IPC: 3.92879 cumulative IPC: 3.77001 (Simulation time: 0 hr 36 min 54 sec) 
Heartbeat CPU 0 instructions: 460000003 cycles: 121897222 heartbeat IPC: 3.94604 cumulative IPC: 3.77367 (Simulation time: 0 hr 37 min 49 sec) 
Heartbeat CPU 0 instructions: 470000002 cycles: 124436596 heartbeat IPC: 3.93798 cumulative IPC: 3.77702 (Simulation time: 0 hr 38 min 24 sec) 
Heartbeat CPU 0 instructions: 480000000 cycles: 126960840 heartbeat IPC: 3.96158 cumulative IPC: 3.78069 (Simulation time: 0 hr 38 min 58 sec) 
Heartbeat CPU 0 instructions: 490000002 cycles: 129500421 heartbeat IPC: 3.93766 cumulative IPC: 3.78377 (Simulation time: 0 hr 39 min 33 sec) 
Heartbeat CPU 0 instructions: 500000002 cycles: 132009207 heartbeat IPC: 3.98599 cumulative IPC: 3.78761 (Simulation time: 0 hr 40 min 8 sec) 

Warmup complete CPU 0 instructions: 500000002 cycles: 132009207 (Simulation time: 0 hr 40 min 8 sec) 

Heartbeat CPU 0 instructions: 510000002 cycles: 139236443 heartbeat IPC: 1.38365 cumulative IPC: 1.38365 (Simulation time: 0 hr 40 min 44 sec) 
Heartbeat CPU 0 instructions: 520000001 cycles: 146486893 heartbeat IPC: 1.37922 cumulative IPC: 1.38144 (Simulation time: 0 hr 41 min 28 sec) 
Heartbeat CPU 0 instructions: 530000004 cycles: 153993832 heartbeat IPC: 1.3321 cumulative IPC: 1.36459 (Simulation time: 0 hr 42 min 14 sec) 
Heartbeat CPU 0 instructions: 540000003 cycles: 161057891 heartbeat IPC: 1.41562 cumulative IPC: 1.377 (Simulation time: 0 hr 42 min 59 sec) 
Heartbeat CPU 0 instructions: 550000004 cycles: 168562485 heartbeat IPC: 1.33252 cumulative IPC: 1.36787 (Simulation time: 0 hr 43 min 50 sec) 
Heartbeat CPU 0 instructions: 560000000 cycles: 176124413 heartbeat IPC: 1.32241 cumulative IPC: 1.36008 (Simulation time: 0 hr 44 min 52 sec) 
Heartbeat CPU 0 instructions: 570000003 cycles: 184135330 heartbeat IPC: 1.2483 cumulative IPC: 1.3429 (Simulation time: 0 hr 46 min 6 sec) 
Heartbeat CPU 0 instructions: 580000000 cycles: 191641136 heartbeat IPC: 1.3323 cumulative IPC: 1.34156 (Simulation time: 0 hr 47 min 2 sec) 
Heartbeat CPU 0 instructions: 590000001 cycles: 199527672 heartbeat IPC: 1.26798 cumulative IPC: 1.33297 (Simulation time: 0 hr 48 min 6 sec) 
Heartbeat CPU 0 instructions: 600000000 cycles: 207070604 heartbeat IPC: 1.32574 cumulative IPC: 1.33224 (Simulation time: 0 hr 49 min 24 sec) 
Heartbeat CPU 0 instructions: 610000000 cycles: 214217210 heartbeat IPC: 1.39927 cumulative IPC: 1.33807 (Simulation time: 0 hr 50 min 8 sec) 
Heartbeat CPU 0 instructions: 620000000 cycles: 221860393 heartbeat IPC: 1.30836 cumulative IPC: 1.33554 (Simulation time: 0 hr 50 min 58 sec) 
Heartbeat CPU 0 instructions: 630000004 cycles: 228807298 heartbeat IPC: 1.43949 cumulative IPC: 1.343 (Simulation time: 0 hr 51 min 39 sec) 
Heartbeat CPU 0 instructions: 640000004 cycles: 235829457 heartbeat IPC: 1.42406 cumulative IPC: 1.34848 (Simulation time: 0 hr 52 min 35 sec) 
Heartbeat CPU 0 instructions: 650000004 cycles: 242989226 heartbeat IPC: 1.39669 cumulative IPC: 1.35159 (Simulation time: 0 hr 53 min 44 sec) 
Heartbeat CPU 0 instructions: 660000000 cycles: 250140084 heartbeat IPC: 1.39843 cumulative IPC: 1.35443 (Simulation time: 0 hr 54 min 35 sec) 
Heartbeat CPU 0 instructions: 670000004 cycles: 257463971 heartbeat IPC: 1.3654 cumulative IPC: 1.35507 (Simulation time: 0 hr 55 min 35 sec) 
Heartbeat CPU 0 instructions: 680000002 cycles: 264811897 heartbeat IPC: 1.36093 cumulative IPC: 1.35539 (Simulation time: 0 hr 56 min 26 sec) 
Heartbeat CPU 0 instructions: 690000004 cycles: 272363262 heartbeat IPC: 1.32426 cumulative IPC: 1.35372 (Simulation time: 0 hr 57 min 5 sec) 
Heartbeat CPU 0 instructions: 700000001 cycles: 279290838 heartbeat IPC: 1.44351 cumulative IPC: 1.35794 (Simulation time: 0 hr 57 min 57 sec) 
Heartbeat CPU 0 instructions: 710000000 cycles: 286139907 heartbeat IPC: 1.46005 cumulative IPC: 1.36248 (Simulation time: 0 hr 59 min 4 sec) 
Heartbeat CPU 0 instructions: 720000002 cycles: 293258161 heartbeat IPC: 1.40484 cumulative IPC: 1.36435 (Simulation time: 1 hr 0 min 22 sec) 
Heartbeat CPU 0 instructions: 730000002 cycles: 300446060 heartbeat IPC: 1.39123 cumulative IPC: 1.3655 (Simulation time: 1 hr 1 min 11 sec) 
Heartbeat CPU 0 instructions: 740000002 cycles: 307650113 heartbeat IPC: 1.38811 cumulative IPC: 1.36642 (Simulation time: 1 hr 1 min 55 sec) 
Heartbeat CPU 0 instructions: 750000004 cycles: 314817499 heartbeat IPC: 1.39521 cumulative IPC: 1.36755 (Simulation time: 1 hr 2 min 34 sec) 
Heartbeat CPU 0 instructions: 760000003 cycles: 321987774 heartbeat IPC: 1.39465 cumulative IPC: 1.36858 (Simulation time: 1 hr 3 min 13 sec) 
Heartbeat CPU 0 instructions: 770000003 cycles: 329245882 heartbeat IPC: 1.37777 cumulative IPC: 1.36891 (Simulation time: 1 hr 3 min 51 sec) 
Heartbeat CPU 0 instructions: 780000003 cycles: 336794839 heartbeat IPC: 1.32469 cumulative IPC: 1.36728 (Simulation time: 1 hr 4 min 27 sec) 
Heartbeat CPU 0 instructions: 790000003 cycles: 344452377 heartbeat IPC: 1.3059 cumulative IPC: 1.36507 (Simulation time: 1 hr 5 min 4 sec) 
Heartbeat CPU 0 instructions: 800000003 cycles: 351765716 heartbeat IPC: 1.36736 cumulative IPC: 1.36515 (Simulation time: 1 hr 5 min 40 sec) 
Heartbeat CPU 0 instructions: 810000002 cycles: 359197502 heartbeat IPC: 1.34557 cumulative IPC: 1.36451 (Simulation time: 1 hr 6 min 17 sec) 
Heartbeat CPU 0 instructions: 820000003 cycles: 366127655 heartbeat IPC: 1.44297 cumulative IPC: 1.36683 (Simulation time: 1 hr 7 min 10 sec) 
Heartbeat CPU 0 instructions: 830000003 cycles: 373090211 heartbeat IPC: 1.43625 cumulative IPC: 1.36883 (Simulation time: 1 hr 8 min 8 sec) 
Heartbeat CPU 0 instructions: 840000002 cycles: 380025753 heartbeat IPC: 1.44185 cumulative IPC: 1.37088 (Simulation time: 1 hr 9 min 2 sec) 
Heartbeat CPU 0 instructions: 850000000 cycles: 387466642 heartbeat IPC: 1.34393 cumulative IPC: 1.37009 (Simulation time: 1 hr 10 min 9 sec) 
Heartbeat CPU 0 instructions: 860000000 cycles: 394706494 heartbeat IPC: 1.38124 cumulative IPC: 1.3704 (Simulation time: 1 hr 10 min 55 sec) 
Heartbeat CPU 0 instructions: 870000002 cycles: 401969998 heartbeat IPC: 1.37675 cumulative IPC: 1.37057 (Simulation time: 1 hr 11 min 36 sec) 
Heartbeat CPU 0 instructions: 880000002 cycles: 409346914 heartbeat IPC: 1.35558 cumulative IPC: 1.37017 (Simulation time: 1 hr 12 min 17 sec) 
Heartbeat CPU 0 instructions: 890000001 cycles: 416501897 heartbeat IPC: 1.39763 cumulative IPC: 1.37086 (Simulation time: 1 hr 12 min 55 sec) 
Heartbeat CPU 0 instructions: 900000003 cycles: 423828552 heartbeat IPC: 1.36488 cumulative IPC: 1.37071 (Simulation time: 1 hr 13 min 32 sec) 
Heartbeat CPU 0 instructions: 910000000 cycles: 431011719 heartbeat IPC: 1.39214 cumulative IPC: 1.37123 (Simulation time: 1 hr 14 min 9 sec) 
Heartbeat CPU 0 instructions: 920000003 cycles: 438218881 heartbeat IPC: 1.38751 cumulative IPC: 1.37161 (Simulation time: 1 hr 14 min 47 sec) 
Heartbeat CPU 0 instructions: 930000001 cycles: 445480922 heartbeat IPC: 1.37702 cumulative IPC: 1.37173 (Simulation time: 1 hr 15 min 23 sec) 
Heartbeat CPU 0 instructions: 940000002 cycles: 452711905 heartbeat IPC: 1.38294 cumulative IPC: 1.37199 (Simulation time: 1 hr 16 min 0 sec) 
Heartbeat CPU 0 instructions: 950000002 cycles: 460014255 heartbeat IPC: 1.36942 cumulative IPC: 1.37193 (Simulation time: 1 hr 16 min 35 sec) 
Heartbeat CPU 0 instructions: 960000003 cycles: 467431048 heartbeat IPC: 1.34829 cumulative IPC: 1.37141 (Simulation time: 1 hr 17 min 11 sec) 
Heartbeat CPU 0 instructions: 970000000 cycles: 474525047 heartbeat IPC: 1.40964 cumulative IPC: 1.3722 (Simulation time: 1 hr 17 min 47 sec) 
Heartbeat CPU 0 instructions: 980000004 cycles: 482043831 heartbeat IPC: 1.33 cumulative IPC: 1.37129 (Simulation time: 1 hr 18 min 44 sec) 
Heartbeat CPU 0 instructions: 990000004 cycles: 489934319 heartbeat IPC: 1.26735 cumulative IPC: 1.369 (Simulation time: 1 hr 19 min 44 sec) 
Heartbeat CPU 0 instructions: 1000000001 cycles: 497551213 heartbeat IPC: 1.31287 cumulative IPC: 1.36783 (Simulation time: 1 hr 20 min 29 sec) 
Heartbeat CPU 0 instructions: 1010000003 cycles: 505427181 heartbeat IPC: 1.26969 cumulative IPC: 1.36576 (Simulation time: 1 hr 21 min 20 sec) 
Heartbeat CPU 0 instructions: 1020000001 cycles: 513053985 heartbeat IPC: 1.31116 cumulative IPC: 1.36467 (Simulation time: 1 hr 22 min 5 sec) 
Heartbeat CPU 0 instructions: 1030000003 cycles: 520725755 heartbeat IPC: 1.30348 cumulative IPC: 1.36346 (Simulation time: 1 hr 22 min 53 sec) 
Heartbeat CPU 0 instructions: 1040000002 cycles: 528432455 heartbeat IPC: 1.29757 cumulative IPC: 1.36218 (Simulation time: 1 hr 23 min 36 sec) 
Heartbeat CPU 0 instructions: 1050000002 cycles: 536066920 heartbeat IPC: 1.30985 cumulative IPC: 1.36119 (Simulation time: 1 hr 24 min 18 sec) 
Heartbeat CPU 0 instructions: 1060000000 cycles: 543869438 heartbeat IPC: 1.28164 cumulative IPC: 1.35968 (Simulation time: 1 hr 25 min 3 sec) 
Heartbeat CPU 0 instructions: 1070000001 cycles: 551550603 heartbeat IPC: 1.30189 cumulative IPC: 1.35863 (Simulation time: 1 hr 25 min 46 sec) 
Heartbeat CPU 0 instructions: 1080000002 cycles: 559105810 heartbeat IPC: 1.32359 cumulative IPC: 1.35801 (Simulation time: 1 hr 26 min 28 sec) 
Heartbeat CPU 0 instructions: 1090000004 cycles: 567072557 heartbeat IPC: 1.25522 cumulative IPC: 1.35612 (Simulation time: 1 hr 27 min 11 sec) 
Heartbeat CPU 0 instructions: 1100000001 cycles: 574806697 heartbeat IPC: 1.29297 cumulative IPC: 1.35502 (Simulation time: 1 hr 27 min 58 sec) 
Heartbeat CPU 0 instructions: 1110000001 cycles: 582174020 heartbeat IPC: 1.35735 cumulative IPC: 1.35506 (Simulation time: 1 hr 28 min 45 sec) 
Heartbeat CPU 0 instructions: 1120000004 cycles: 589675218 heartbeat IPC: 1.33312 cumulative IPC: 1.3547 (Simulation time: 1 hr 29 min 29 sec) 
Heartbeat CPU 0 instructions: 1130000000 cycles: 596961471 heartbeat IPC: 1.37245 cumulative IPC: 1.35498 (Simulation time: 1 hr 30 min 15 sec) 
Heartbeat CPU 0 instructions: 1140000001 cycles: 603984273 heartbeat IPC: 1.42393 cumulative IPC: 1.356 (Simulation time: 1 hr 30 min 59 sec) 
Heartbeat CPU 0 instructions: 1150000003 cycles: 611188128 heartbeat IPC: 1.38815 cumulative IPC: 1.35649 (Simulation time: 1 hr 31 min 43 sec) 
Heartbeat CPU 0 instructions: 1160000004 cycles: 617920355 heartbeat IPC: 1.48539 cumulative IPC: 1.35827 (Simulation time: 1 hr 32 min 26 sec) 
Heartbeat CPU 0 instructions: 1170000003 cycles: 624639389 heartbeat IPC: 1.48831 cumulative IPC: 1.36005 (Simulation time: 1 hr 33 min 9 sec) 
Heartbeat CPU 0 instructions: 1180000000 cycles: 631569010 heartbeat IPC: 1.44308 cumulative IPC: 1.3612 (Simulation time: 1 hr 33 min 50 sec) 
Heartbeat CPU 0 instructions: 1190000002 cycles: 639131400 heartbeat IPC: 1.32233 cumulative IPC: 1.36062 (Simulation time: 1 hr 34 min 48 sec) 
Heartbeat CPU 0 instructions: 1200000004 cycles: 646798525 heartbeat IPC: 1.30427 cumulative IPC: 1.35978 (Simulation time: 1 hr 35 min 55 sec) 
Heartbeat CPU 0 instructions: 1210000000 cycles: 654227345 heartbeat IPC: 1.34611 cumulative IPC: 1.35959 (Simulation time: 1 hr 37 min 10 sec) 
Heartbeat CPU 0 instructions: 1220000000 cycles: 661932540 heartbeat IPC: 1.29783 cumulative IPC: 1.35869 (Simulation time: 1 hr 38 min 27 sec) 
Heartbeat CPU 0 instructions: 1230000002 cycles: 669511028 heartbeat IPC: 1.31952 cumulative IPC: 1.35813 (Simulation time: 1 hr 39 min 40 sec) 
Heartbeat CPU 0 instructions: 1240000003 cycles: 677164514 heartbeat IPC: 1.30659 cumulative IPC: 1.35741 (Simulation time: 1 hr 40 min 55 sec) 
Heartbeat CPU 0 instructions: 1250000002 cycles: 685266340 heartbeat IPC: 1.23429 cumulative IPC: 1.35561 (Simulation time: 1 hr 41 min 48 sec) 
Heartbeat CPU 0 instructions: 1260000004 cycles: 692531119 heartbeat IPC: 1.3765 cumulative IPC: 1.35588 (Simulation time: 1 hr 42 min 40 sec) 
Heartbeat CPU 0 instructions: 1270000000 cycles: 700069957 heartbeat IPC: 1.32646 cumulative IPC: 1.35549 (Simulation time: 1 hr 43 min 52 sec) 
Heartbeat CPU 0 instructions: 1280000000 cycles: 707438651 heartbeat IPC: 1.35709 cumulative IPC: 1.35551 (Simulation time: 1 hr 45 min 11 sec) 
Heartbeat CPU 0 instructions: 1290000004 cycles: 714506754 heartbeat IPC: 1.41481 cumulative IPC: 1.35623 (Simulation time: 1 hr 46 min 30 sec) 
Heartbeat CPU 0 instructions: 1300000002 cycles: 721544764 heartbeat IPC: 1.42086 cumulative IPC: 1.357 (Simulation time: 1 hr 47 min 49 sec) 
Heartbeat CPU 0 instructions: 1310000004 cycles: 728628589 heartbeat IPC: 1.41167 cumulative IPC: 1.35765 (Simulation time: 1 hr 49 min 6 sec) 
Heartbeat CPU 0 instructions: 1320000001 cycles: 735318504 heartbeat IPC: 1.49479 cumulative IPC: 1.35917 (Simulation time: 1 hr 50 min 9 sec) 
Heartbeat CPU 0 instructions: 1330000004 cycles: 742109386 heartbeat IPC: 1.47256 cumulative IPC: 1.36043 (Simulation time: 1 hr 50 min 52 sec) 
Heartbeat CPU 0 instructions: 1340000000 cycles: 749209492 heartbeat IPC: 1.40843 cumulative IPC: 1.36098 (Simulation time: 1 hr 51 min 34 sec) 
Heartbeat CPU 0 instructions: 1350000003 cycles: 756884901 heartbeat IPC: 1.30286 cumulative IPC: 1.36027 (Simulation time: 1 hr 52 min 20 sec) 
Heartbeat CPU 0 instructions: 1360000002 cycles: 764478689 heartbeat IPC: 1.31687 cumulative IPC: 1.35975 (Simulation time: 1 hr 53 min 3 sec) 
Heartbeat CPU 0 instructions: 1370000004 cycles: 772090203 heartbeat IPC: 1.3138 cumulative IPC: 1.3592 (Simulation time: 1 hr 53 min 48 sec) 
Heartbeat CPU 0 instructions: 1380000000 cycles: 779727027 heartbeat IPC: 1.30944 cumulative IPC: 1.35862 (Simulation time: 1 hr 54 min 30 sec) 
Heartbeat CPU 0 instructions: 1390000000 cycles: 787261791 heartbeat IPC: 1.32718 cumulative IPC: 1.35825 (Simulation time: 1 hr 55 min 13 sec) 
Heartbeat CPU 0 instructions: 1400000000 cycles: 795125673 heartbeat IPC: 1.27164 cumulative IPC: 1.35723 (Simulation time: 1 hr 55 min 56 sec) 
Heartbeat CPU 0 instructions: 1410000003 cycles: 802728641 heartbeat IPC: 1.31528 cumulative IPC: 1.35675 (Simulation time: 1 hr 56 min 42 sec) 
Heartbeat CPU 0 instructions: 1420000001 cycles: 810045088 heartbeat IPC: 1.36678 cumulative IPC: 1.35686 (Simulation time: 1 hr 57 min 30 sec) 
Heartbeat CPU 0 instructions: 1430000004 cycles: 817540732 heartbeat IPC: 1.33411 cumulative IPC: 1.35661 (Simulation time: 1 hr 58 min 13 sec) 
Heartbeat CPU 0 instructions: 1440000001 cycles: 824754213 heartbeat IPC: 1.38629 cumulative IPC: 1.35692 (Simulation time: 1 hr 58 min 58 sec) 
Heartbeat CPU 0 instructions: 1450000003 cycles: 831759762 heartbeat IPC: 1.42744 cumulative IPC: 1.35763 (Simulation time: 1 hr 59 min 42 sec) 
Heartbeat CPU 0 instructions: 1460000002 cycles: 838964080 heartbeat IPC: 1.38806 cumulative IPC: 1.35794 (Simulation time: 2 hr 0 min 26 sec) 
Heartbeat CPU 0 instructions: 1470000000 cycles: 845774265 heartbeat IPC: 1.46839 cumulative IPC: 1.35899 (Simulation time: 2 hr 1 min 9 sec) 
Heartbeat CPU 0 instructions: 1480000001 cycles: 852419746 heartbeat IPC: 1.50478 cumulative IPC: 1.36034 (Simulation time: 2 hr 2 min 16 sec) 
Heartbeat CPU 0 instructions: 1490000002 cycles: 859371006 heartbeat IPC: 1.43859 cumulative IPC: 1.36108 (Simulation time: 2 hr 3 min 12 sec) 
Heartbeat CPU 0 instructions: 1500000004 cycles: 866803628 heartbeat IPC: 1.34542 cumulative IPC: 1.36092 (Simulation time: 2 hr 3 min 58 sec) 
Heartbeat CPU 0 instructions: 1510000000 cycles: 874474696 heartbeat IPC: 1.3036 cumulative IPC: 1.36033 (Simulation time: 2 hr 5 min 6 sec) 
Heartbeat CPU 0 instructions: 1520000004 cycles: 882034104 heartbeat IPC: 1.32286 cumulative IPC: 1.35995 (Simulation time: 2 hr 5 min 50 sec) 
Heartbeat CPU 0 instructions: 1530000000 cycles: 889732702 heartbeat IPC: 1.29894 cumulative IPC: 1.35933 (Simulation time: 2 hr 6 min 35 sec) 
Heartbeat CPU 0 instructions: 1540000000 cycles: 897258227 heartbeat IPC: 1.32881 cumulative IPC: 1.35903 (Simulation time: 2 hr 7 min 15 sec) 
Heartbeat CPU 0 instructions: 1550000003 cycles: 905015562 heartbeat IPC: 1.2891 cumulative IPC: 1.35833 (Simulation time: 2 hr 7 min 59 sec) 
Heartbeat CPU 0 instructions: 1560000000 cycles: 913117811 heartbeat IPC: 1.23422 cumulative IPC: 1.35705 (Simulation time: 2 hr 8 min 42 sec) 
Heartbeat CPU 0 instructions: 1570000002 cycles: 920435640 heartbeat IPC: 1.36653 cumulative IPC: 1.35713 (Simulation time: 2 hr 9 min 30 sec) 
Heartbeat CPU 0 instructions: 1580000001 cycles: 928090410 heartbeat IPC: 1.30637 cumulative IPC: 1.35665 (Simulation time: 2 hr 10 min 16 sec) 
Heartbeat CPU 0 instructions: 1590000000 cycles: 935620043 heartbeat IPC: 1.32809 cumulative IPC: 1.35638 (Simulation time: 2 hr 11 min 0 sec) 
Heartbeat CPU 0 instructions: 1600000004 cycles: 942741740 heartbeat IPC: 1.40416 cumulative IPC: 1.3568 (Simulation time: 2 hr 11 min 44 sec) 
Heartbeat CPU 0 instructions: 1610000002 cycles: 949805285 heartbeat IPC: 1.41572 cumulative IPC: 1.35731 (Simulation time: 2 hr 12 min 29 sec) 
Heartbeat CPU 0 instructions: 1620000001 cycles: 957036333 heartbeat IPC: 1.38293 cumulative IPC: 1.35753 (Simulation time: 2 hr 13 min 12 sec) 
Heartbeat CPU 0 instructions: 1630000000 cycles: 964101152 heartbeat IPC: 1.41546 cumulative IPC: 1.35802 (Simulation time: 2 hr 13 min 55 sec) 
Heartbeat CPU 0 instructions: 1640000002 cycles: 971025757 heartbeat IPC: 1.44413 cumulative IPC: 1.35873 (Simulation time: 2 hr 14 min 38 sec) 
Heartbeat CPU 0 instructions: 1650000003 cycles: 978522764 heartbeat IPC: 1.33387 cumulative IPC: 1.35851 (Simulation time: 2 hr 15 min 19 sec) 
Heartbeat CPU 0 instructions: 1660000000 cycles: 985870477 heartbeat IPC: 1.36097 cumulative IPC: 1.35853 (Simulation time: 2 hr 16 min 11 sec) 
Heartbeat CPU 0 instructions: 1670000001 cycles: 993116177 heartbeat IPC: 1.38013 cumulative IPC: 1.35872 (Simulation time: 2 hr 16 min 52 sec) 
Heartbeat CPU 0 instructions: 1680000002 cycles: 1000450845 heartbeat IPC: 1.36339 cumulative IPC: 1.35876 (Simulation time: 2 hr 17 min 27 sec) 
Heartbeat CPU 0 instructions: 1690000001 cycles: 1007789802 heartbeat IPC: 1.36259 cumulative IPC: 1.35879 (Simulation time: 2 hr 18 min 9 sec) 
Heartbeat CPU 0 instructions: 1700000000 cycles: 1015125313 heartbeat IPC: 1.36323 cumulative IPC: 1.35882 (Simulation time: 2 hr 18 min 45 sec) 
Heartbeat CPU 0 instructions: 1710000002 cycles: 1022903731 heartbeat IPC: 1.28561 cumulative IPC: 1.35819 (Simulation time: 2 hr 19 min 28 sec) 
Heartbeat CPU 0 instructions: 1720000002 cycles: 1030261024 heartbeat IPC: 1.3592 cumulative IPC: 1.35819 (Simulation time: 2 hr 20 min 9 sec) 
Heartbeat CPU 0 instructions: 1730000003 cycles: 1037538838 heartbeat IPC: 1.37404 cumulative IPC: 1.35832 (Simulation time: 2 hr 20 min 48 sec) 
Heartbeat CPU 0 instructions: 1740000001 cycles: 1044843535 heartbeat IPC: 1.36898 cumulative IPC: 1.35841 (Simulation time: 2 hr 21 min 24 sec) 
Heartbeat CPU 0 instructions: 1750000000 cycles: 1052172573 heartbeat IPC: 1.36444 cumulative IPC: 1.35845 (Simulation time: 2 hr 22 min 5 sec) 
Heartbeat CPU 0 instructions: 1760000000 cycles: 1059554480 heartbeat IPC: 1.35466 cumulative IPC: 1.35842 (Simulation time: 2 hr 22 min 42 sec) 
Heartbeat CPU 0 instructions: 1770000001 cycles: 1067141745 heartbeat IPC: 1.318 cumulative IPC: 1.3581 (Simulation time: 2 hr 23 min 22 sec) 
Heartbeat CPU 0 instructions: 1780000000 cycles: 1074963960 heartbeat IPC: 1.27841 cumulative IPC: 1.35744 (Simulation time: 2 hr 24 min 4 sec) 
Heartbeat CPU 0 instructions: 1790000000 cycles: 1082933350 heartbeat IPC: 1.2548 cumulative IPC: 1.35658 (Simulation time: 2 hr 24 min 47 sec) 
Heartbeat CPU 0 instructions: 1800000001 cycles: 1090693530 heartbeat IPC: 1.28863 cumulative IPC: 1.35603 (Simulation time: 2 hr 25 min 29 sec) 
Heartbeat CPU 0 instructions: 1810000002 cycles: 1098386406 heartbeat IPC: 1.2999 cumulative IPC: 1.35558 (Simulation time: 2 hr 26 min 10 sec) 
Heartbeat CPU 0 instructions: 1820000004 cycles: 1106067800 heartbeat IPC: 1.30185 cumulative IPC: 1.35515 (Simulation time: 2 hr 26 min 55 sec) 
Heartbeat CPU 0 instructions: 1830000001 cycles: 1113824174 heartbeat IPC: 1.28926 cumulative IPC: 1.35463 (Simulation time: 2 hr 27 min 37 sec) 
Heartbeat CPU 0 instructions: 1840000004 cycles: 1121489070 heartbeat IPC: 1.30465 cumulative IPC: 1.35425 (Simulation time: 2 hr 28 min 18 sec) 
Heartbeat CPU 0 instructions: 1850000002 cycles: 1129291547 heartbeat IPC: 1.28164 cumulative IPC: 1.35368 (Simulation time: 2 hr 29 min 2 sec) 
Heartbeat CPU 0 instructions: 1860000000 cycles: 1137570137 heartbeat IPC: 1.20793 cumulative IPC: 1.35248 (Simulation time: 2 hr 29 min 55 sec) 
Heartbeat CPU 0 instructions: 1870000004 cycles: 1144794031 heartbeat IPC: 1.3843 cumulative IPC: 1.35271 (Simulation time: 2 hr 31 min 23 sec) 
Heartbeat CPU 0 instructions: 1880000000 cycles: 1152426727 heartbeat IPC: 1.31015 cumulative IPC: 1.35239 (Simulation time: 2 hr 32 min 45 sec) 
Heartbeat CPU 0 instructions: 1890000000 cycles: 1160124110 heartbeat IPC: 1.29914 cumulative IPC: 1.35199 (Simulation time: 2 hr 33 min 59 sec) 
Heartbeat CPU 0 instructions: 1900000003 cycles: 1167159660 heartbeat IPC: 1.42135 cumulative IPC: 1.35246 (Simulation time: 2 hr 34 min 43 sec) 
Heartbeat CPU 0 instructions: 1910000001 cycles: 1174324749 heartbeat IPC: 1.39566 cumulative IPC: 1.35276 (Simulation time: 2 hr 35 min 36 sec) 
Heartbeat CPU 0 instructions: 1920000004 cycles: 1181509999 heartbeat IPC: 1.39174 cumulative IPC: 1.35302 (Simulation time: 2 hr 36 min 30 sec) 
Heartbeat CPU 0 instructions: 1930000002 cycles: 1188284766 heartbeat IPC: 1.47607 cumulative IPC: 1.35381 (Simulation time: 2 hr 37 min 13 sec) 
Heartbeat CPU 0 instructions: 1940000004 cycles: 1195041761 heartbeat IPC: 1.47995 cumulative IPC: 1.35462 (Simulation time: 2 hr 37 min 55 sec) 
Heartbeat CPU 0 instructions: 1950000002 cycles: 1201979536 heartbeat IPC: 1.44138 cumulative IPC: 1.35518 (Simulation time: 2 hr 38 min 36 sec) 
Heartbeat CPU 0 instructions: 1960000003 cycles: 1209711209 heartbeat IPC: 1.29338 cumulative IPC: 1.35473 (Simulation time: 2 hr 39 min 20 sec) 
Heartbeat CPU 0 instructions: 1970000003 cycles: 1217451616 heartbeat IPC: 1.29192 cumulative IPC: 1.35429 (Simulation time: 2 hr 40 min 3 sec) 
Heartbeat CPU 0 instructions: 1980000002 cycles: 1224896210 heartbeat IPC: 1.34326 cumulative IPC: 1.35421 (Simulation time: 2 hr 40 min 47 sec) 
Heartbeat CPU 0 instructions: 1990000000 cycles: 1232746427 heartbeat IPC: 1.27385 cumulative IPC: 1.35364 (Simulation time: 2 hr 41 min 43 sec) 
*** Reached end of trace: traces/465.tonto-44B.champsimtrace.xz
Heartbeat CPU 0 instructions: 2000000003 cycles: 1240322441 heartbeat IPC: 1.31996 cumulative IPC: 1.35341 (Simulation time: 2 hr 42 min 39 sec) 
Finished CPU 0 instructions: 1500000001 cycles: 1108313234 cumulative IPC: 1.35341 (Simulation time: 2 hr 42 min 39 sec) 

ChampSim completed all CPUs

Region of Interest Statistics

CPU 0 cumulative IPC: 1.35341 instructions: 1500000001 cycles: 1108313234
cpu0_DTLB TOTAL     ACCESS:  320255199  HIT:  319807725  MISS:     447474
cpu0_DTLB LOAD      ACCESS:  229746052  HIT:  229332131  MISS:     413921
cpu0_DTLB RFO       ACCESS:   90509147  HIT:   90475594  MISS:      33553
cpu0_DTLB PREFETCH  ACCESS:          0  HIT:          0  MISS:          0
cpu0_DTLB WRITEBACK ACCESS:          0  HIT:          0  MISS:          0
cpu0_DTLB TRANSLATION ACCESS:          0  HIT:          0  MISS:          0
cpu0_DTLB PREFETCH  REQUESTED:          0  ISSUED:          0  USEFUL:          0  USELESS:          0
cpu0_DTLB AVERAGE MISS LATENCY: 9.0138 cycles
cpu0_ITLB TOTAL     ACCESS:   99121075  HIT:   98943320  MISS:     177755
cpu0_ITLB LOAD      ACCESS:   99121075  HIT:   98943320  MISS:     177755
cpu0_ITLB RFO       ACCESS:          0  HIT:          0  MISS:          0
cpu0_ITLB PREFETCH  ACCESS:          0  HIT:          0  MISS:          0
cpu0_ITLB WRITEBACK ACCESS:          0  HIT:          0  MISS:          0
cpu0_ITLB TRANSLATION ACCESS:          0  HIT:          0  MISS:          0
cpu0_ITLB PREFETCH  REQUESTED:          0  ISSUED:          0  USEFUL:          0  USELESS:          0
cpu0_ITLB AVERAGE MISS LATENCY: 9.01793 cycles
cpu0_L1I TOTAL     ACCESS:  143912330  HIT:  142315558  MISS:    1596772
cpu0_L1I LOAD      ACCESS:  143912330  HIT:  142315558  MISS:    1596772
cpu0_L1I RFO       ACCESS:          0  HIT:          0  MISS:          0
cpu0_L1I PREFETCH  ACCESS:          0  HIT:          0  MISS:          0
cpu0_L1I WRITEBACK ACCESS:          0  HIT:          0  MISS:          0
cpu0_L1I TRANSLATION ACCESS:          0  HIT:          0  MISS:          0
cpu0_L1I PREFETCH  REQUESTED:          0  ISSUED:          0  USEFUL:          0  USELESS:          0
cpu0_L1I AVERAGE MISS LATENCY: 11.4066 cycles
cpu0_STLB TOTAL     ACCESS:     625230  HIT:     625209  MISS:         21
cpu0_STLB LOAD      ACCESS:     591676  HIT:     591656  MISS:         20
cpu0_STLB RFO       ACCESS:      33554  HIT:      33553  MISS:          1
cpu0_STLB PREFETCH  ACCESS:          0  HIT:          0  MISS:          0
cpu0_STLB WRITEBACK ACCESS:          0  HIT:          0  MISS:          0
cpu0_STLB TRANSLATION ACCESS:          0  HIT:          0  MISS:          0
cpu0_STLB PREFETCH  REQUESTED:          0  ISSUED:          0  USEFUL:          0  USELESS:          0
cpu0_STLB AVERAGE MISS LATENCY: 234.571 cycles
cpu0_L1D TOTAL     ACCESS:  458444579  HIT:  456960687  MISS:    1483892
cpu0_L1D LOAD      ACCESS:  273704140  HIT:  272567157  MISS:    1136983
cpu0_L1D RFO       ACCESS:  184740418  HIT:  184393517  MISS:     346901
cpu0_L1D PREFETCH  ACCESS:          0  HIT:          0  MISS:          0
cpu0_L1D WRITEBACK ACCESS:          0  HIT:          0  MISS:          0
cpu0_L1D TRANSLATION ACCESS:         21  HIT:         13  MISS:          8
cpu0_L1D PREFETCH  REQUESTED:          0  ISSUED:          0  USEFUL:          0  USELESS:          0
cpu0_L1D AVERAGE MISS LATENCY: 15.9516 cycles
cpu0_L2C TOTAL     ACCESS:    3663659  HIT:    3330040  MISS:     333619
cpu0_L2C LOAD      ACCESS:    2733723  HIT:    2411216  MISS:     322507
cpu0_L2C RFO       ACCESS:     346881  HIT:     339127  MISS:       7754
cpu0_L2C PREFETCH  ACCESS:          0  HIT:          0  MISS:          0
cpu0_L2C WRITEBACK ACCESS:     583047  HIT:     579696  MISS:       3351
cpu0_L2C TRANSLATION ACCESS:          8  HIT:          1  MISS:          7
cpu0_L2C PREFETCH  REQUESTED:          0  ISSUED:          0  USEFUL:          0  USELESS:          0
cpu0_L2C AVERAGE MISS LATENCY: 23.7546 cycles
LLC TOTAL     ACCESS:     386755  HIT:     380258  MISS:       6497
LLC LOAD      ACCESS:     322506  HIT:     316175  MISS:       6331
LLC RFO       ACCESS:       7754  HIT:       7616  MISS:        138
LLC PREFETCH  ACCESS:          0  HIT:          0  MISS:          0
LLC WRITEBACK ACCESS:      56488  HIT:      56462  MISS:         26
LLC TRANSLATION ACCESS:          7  HIT:          5  MISS:          2
LLC PREFETCH  REQUESTED:          0  ISSUED:          0  USEFUL:          0  USELESS:          0
LLC AVERAGE MISS LATENCY: 152.283 cycles
~~~~~~~~~~Reuse Distance Profiler output~~~~~~~~~~
0	106959712	14686080
1	37691584	14054192
2	33872128	19813664
3	31106864	17651600
4	27779424	18982416
5	16820304	12441488
6	18307584	14111040
7	12128448	8923808
8	9674352	7280688
9	9996736	7966368
10	7179888	5186976
11	7923072	6007952
12	8312848	6230688
13	10042928	7199584
14	8410560	6760096
15	8506480	6583904
16	7040576	5469296
17	6811008	5574752
18	5474272	4278816
19	5444848	4122144
20	4765264	3665600
21	4796992	3751760
22	4190448	3063568
23	3247088	2385744
24	3905424	3140784
25	3393792	2346432
26	3887536	2780656
27	3988256	2814016
28	4181488	2781520
29	3414016	2576256
30	3498368	2618416
31	3404672	1944464
32	3035008	1978768
33	2597200	1567408
34	3050432	1722176
35	2615136	1851104
36	3333760	2002720
37	3460416	2099744
38	3046112	1778176
39	2238336	1603200
40	3095136	2432464
41	2866384	2215904
42	2673792	2007728
43	2564336	2094624
44	2326624	1775856
45	1801376	1350848
46	1607200	1196224
47	1764432	1137616
48	1755568	1271328
49	1530432	1108032
50	1447760	1077280
51	1650928	1248448
52	1656432	1177200
53	1382512	1088304
54	1080384	765776
55	1289424	1013104
56	1155440	819184
57	1258736	957728
58	1359120	1055280
59	1129664	832880
60	1542560	1182720
61	1229072	883792
62	1349360	961568
63	1378128	1068576
64	2545904	1782528
66	2834256	2085952
68	3046064	2370176
70	3774448	3065472
72	2818496	2085760
74	3120640	2236032
76	3196816	2091712
78	4356912	3268656
80	2691392	1727120
82	2179360	1516832
84	1740832	1138832
86	1321856	859936
88	1599088	1050288
90	1573152	1110448
92	1489536	1048480
94	1191968	920640
96	1153904	915664
98	1320176	1044880
100	1174672	715408
102	918512	717248
104	587072	441232
106	562608	419216
108	510432	380608
110	519104	353024
112	522048	369760
114	491408	354000
116	444336	307696
118	447936	335232
120	430864	332576
122	432800	343968
124	372176	294128
126	373312	299552
128	728352	553184
132	708336	538256
136	731824	546672
140	764880	604096
144	687424	496464
148	659648	506544
152	1002864	750800
156	780592	594496
160	1107104	962720
164	838432	730720
168	1145280	997472
172	768096	581232
176	635360	534224
180	629936	477504
184	589920	456352
188	642016	558848
192	574400	466384
196	638608	522528
200	614592	443232
204	585584	462144
208	634640	521488
212	647184	536784
216	539408	460096
220	851760	746144
224	555056	465728
228	513984	431904
232	479936	402720
236	368528	302944
240	467184	385776
244	519104	433184
248	387184	301760
252	334128	250592
256	647008	495168
264	542448	422720
272	519840	383520
280	415904	296304
288	374528	272752
296	305296	191904
304	309152	202800
312	328976	216768
320	345520	265056
328	300976	220384
336	394336	316224
344	284432	207552
352	304720	214064
360	274832	183008
368	288704	182448
376	250128	175680
384	250688	181120
392	254000	179616
400	247216	170848
408	281312	209200
416	231904	175024
424	240672	183584
432	291536	203760
440	198960	150080
448	189456	143872
456	237424	190592
464	207008	172352
472	190448	151664
480	204032	172336
488	183120	154896
496	158992	131936
504	172688	142160
512	351344	285184
528	312560	258480
544	319344	256752
560	272944	175040
576	217008	153088
592	234080	173600
608	231760	165376
624	244032	186400
640	218944	174976
656	165088	123472
672	170384	129024
688	196064	155136
704	186560	145728
720	159888	126240
736	185312	136480
752	212480	174304
768	195504	154560
784	257104	207616
800	189552	155376
816	168496	134656
832	148064	114704
848	175872	131904
864	190976	162144
880	167632	143216
896	166768	129296
912	160352	119968
928	217168	149088
944	192112	146928
960	172816	121360
976	136448	87840
992	141856	97104
1008	157440	114624
1024	291568	194704
1056	261168	166816
1088	260464	175808
1120	262096	174240
1152	249584	160288
1184	231760	145152
1216	230224	137136
1248	280848	167488
1280	249744	133504
1312	258496	150976
1344	309568	158224
1376	336304	203504
1408	315008	203840
1440	325264	233456
1472	298128	192032
1504	310112	170160
1536	551888	361472
1568	533344	344608
1600	556672	401264
1632	416672	282416
1664	309392	185664
1696	327136	214416
1728	689344	532544
1760	804880	647280
1792	703312	584208
1824	473488	401024
1856	264096	213168
1888	270800	221568
1920	227424	180304
1952	226240	176736
1984	218256	172368
2016	133776	95552
2048	173600	107760
2112	171440	111472
2176	140704	86336
2240	153936	98784
2304	177072	116640
2368	172160	99328
2432	251920	147248
2496	277312	179136
2560	232192	138416
2624	310160	222912
2688	264528	200000
2752	274608	217856
2816	378720	326288
2880	277872	239632
2944	169008	139648
3008	205808	174576
3072	117040	90016
3136	81680	54992
3200	96064	66208
3264	103328	70512
3328	104192	70320
3392	100512	68112
3456	110032	73696
3520	99632	66048
3584	104944	70736
3648	99616	65120
3712	87888	60192
3776	68016	49904
3840	66608	54272
3904	75760	63168
3968	102608	88032
4032	130752	117264
4096	144192	121856
4224	86192	63328
4352	99744	70496
4480	89280	58192
4608	88416	56592
4736	94560	64064
4864	82000	51328
4992	78512	44464
5120	91392	59024
5248	112384	78848
5376	92576	62848
5504	76288	51664
5632	129776	106624
5760	132448	111456
5888	103584	86592
6016	52320	37696
6144	49376	33728
6272	47056	31264
6400	55184	40160
6528	51056	33408
6656	52896	36080
6784	53200	38400
6912	60512	44352
7040	59328	44416
7168	50560	38192
7296	41184	30336
7424	35680	25504
7552	29904	21248
7680	31168	22032
7808	32848	21904
7936	38896	27280
8064	34896	23376
8192	61632	42400
8448	91488	73104
8704	66432	47264
8960	60208	43488
9216	69920	50320
9472	62128	43728
9728	73920	53392
9984	62160	45632
10240	59488	41680
10496	60160	39920
10752	72448	55872
11008	58832	45312
11264	54752	41040
11520	47184	34688
11776	45280	30736
12032	55680	41472
12288	54112	40384
12544	57504	45872
12800	51184	38944
13056	41232	27744
13312	40528	27536
13568	50816	35824
13824	59504	48496
14080	57792	46736
14336	68608	57200
14592	56304	43712
14848	46416	34960
15104	34880	23776
15360	32048	20512
15616	33392	20256
15872	31888	19760
16128	39424	25648
16384	84304	58896
16896	70848	51120
17408	51024	34176
17920	53872	37536
18432	55344	39744
18944	49984	35248
19456	52336	37184
19968	46544	32688
20480	53456	38416
20992	47104	33984
21504	32688	21792
22016	30768	19904
22528	27520	18320
23040	27920	19104
23552	27008	17568
24064	35040	24768
24576	33824	22752
25088	34624	21472
25600	32928	23248
26112	30224	21200
26624	28176	19120
27136	26608	18032
27648	26816	19056
28160	29712	20592
28672	29712	20240
29184	33856	24864
29696	28928	19504
30208	25744	15744
30720	26096	16384
31232	33376	22832
31744	32096	20752
32256	29168	20416
32768	36704	22208
33792	33504	20768
34816	35232	22896
35840	35776	22288
36864	38800	22448
37888	37376	22512
38912	33520	19344
39936	31440	19376
40960	29360	18032
41984	30672	20560
43008	30832	20432
44032	25952	16304
45056	21344	12384
46080	20256	12368
47104	21008	13440
48128	19056	12768
49152	19808	14064
50176	19136	13584
51200	23920	16944
52224	21440	15376
53248	17552	13184
54272	17440	12240
55296	16096	11168
56320	16448	10768
57344	15808	10368
58368	17072	10784
59392	16480	11312
60416	15888	10064
61440	17072	11008
62464	17248	11024
63488	19024	12496
64512	17584	10576
65536	32080	19312
67584	27008	17376
69632	26896	16032
71680	25808	17216
73728	29584	21072
75776	21488	14048
77824	21056	13552
79872	23408	13632
81920	23408	14224
83968	21360	12752
86016	22336	13296
88064	23920	14160
90112	25632	14752
92160	28784	14224
94208	28096	15824
96256	29952	17536
98304	22464	15360
100352	20256	13920
102400	16688	10464
104448	19120	12880
106496	16400	10272
108544	16224	8688
110592	14656	7744
112640	19280	11808
114688	24544	16288
116736	23456	15552
118784	24896	17056
120832	33712	25200
122880	15552	10496
124928	11648	8480
126976	11232	8400
129024	10368	7040
131072	18224	11456
135168	16352	10368
139264	17216	11872
143360	16400	10304
147456	14736	10048
151552	11968	7408
155648	12992	8016
159744	10256	6224
163840	12352	7120
167936	15776	9520
172032	15904	10576
176128	16432	10960
180224	16208	10448
184320	18464	12400
188416	18336	11648
192512	18352	9712
196608	14720	7536
200704	12080	7888
204800	11488	5600
208896	10192	4368
212992	9312	4240
217088	7600	4640
221184	8352	4864
225280	10208	6752
229376	9200	5472
233472	11440	5152
237568	13472	6224
241664	8560	5184
245760	8176	5728
249856	10368	7312
253952	8640	4688
258048	6160	4208
262144	19360	14448
270336	14576	8240
278528	11552	6128
286720	10992	6912
294912	10656	5360
303104	10032	5952
311296	8144	6288
319488	9056	4800
327680	8256	5456
335872	9264	6656
344064	7776	4752
352256	4688	3744
360448	6128	5280
368640	6768	5792
376832	7152	5520
385024	18080	6896
393216	10304	6800
401408	8336	6352
409600	7120	5200
417792	6160	5296
425984	4736	3952
434176	6432	3792
442368	7408	3776
450560	7280	4224
458752	5744	4512
466944	5520	4240
475136	6320	5248
483328	8352	7584
491520	4640	3472
499712	7616	4928
507904	6448	2832
516096	5232	3488
524288	5184	4160
540672	7120	6000
557056	5024	4128
573440	5408	3760
589824	6560	4480
606208	8240	4592
622592	5728	4416
638976	4400	3248
655360	4048	2768
671744	4256	3248
688128	4272	3456
704512	6576	5472
720896	6928	6752
737280	5504	4816
753664	4192	3408
770048	4592	3520
786432	4944	3808
802816	6784	5824
819200	6144	5280
835584	8144	7040
851968	9248	7616
868352	6352	4736
884736	6656	4400
901120	4720	3696
917504	4400	3648
933888	4384	3792
950272	3696	3456
966656	2864	2768
983040	3328	3040
999424	5088	4960
1015808	4336	4192
1032192	3600	3104
1048576	4032	3776
1081344	4304	3824
1114112	5744	3712
1146880	6192	4416
1179648	6512	5248
1212416	3664	2944
1245184	3984	3648
1277952	4576	3856
1310720	3152	3008
1343488	5136	4864
1376256	6192	5504
1409024	6672	5968
1441792	6016	5424
1474560	5664	4672
1507328	5344	5248
1540096	5440	4784
1572864	4304	3424
1605632	5024	4304
1638400	11696	11312
1671168	7712	7312
1703936	5792	4944
1736704	3376	3248
1769472	3328	3280
1802240	2448	2416
1835008	2720	2592
1867776	7968	6272
1900544	6704	2976
1933312	6304	2560
1966080	6368	1584
1998848	4576	3296
2031616	4368	2656
2064384	3376	2816
2097152	6304	5744
2162688	10160	10032
2228224	14864	14624
2293760	9392	7520
2359296	22752	22128
2424832	9888	8992
2490368	10112	8720
2555904	15344	5776
2621440	8768	4896
2686976	6176	5232
2752512	6224	4112
2818048	4768	4560
2883584	4384	4096
2949120	4480	3408
3014656	7648	3888
3080192	10224	6176
3145728	5024	4336
3211264	5952	5216
3276800	7680	5840
3342336	5328	4544
3407872	5440	3296
3473408	4176	4080
3538944	5600	4400
3604480	5776	5376
3670016	3120	3040
3735552	1696	1680
3801088	2624	2416
3866624	6992	6848
3932160	8912	8752
3997696	4368	4288
4063232	2944	2432
4128768	3632	3344
4194304	3584	3552
4325376	5856	4592
4456448	4544	4480
4587520	6416	3952
4718592	6512	6496
4849664	5456	5328
4980736	5424	5024
5111808	5344	5296
5242880	4368	3744
5373952	3328	3328
5505024	2784	2672
5636096	3040	3040
5767168	2304	2304
5898240	2208	2208
6029312	1488	1472
6160384	1488	1472
6291456	2704	2688
6422528	2032	2032
6553600	3088	3088
6684672	1360	1328
6815744	3248	3248
6946816	2608	2560
7077888	2208	2208
7208960	1760	1744
7340032	1600	1600
7471104	1344	1312
7602176	2080	1904
7733248	1584	1584
7864320	2224	2224
7995392	2928	2912
8126464	3056	3056
8257536	9984	9888
8388608	9120	9040
8650752	1104	1056
8912896	1648	1632
9175040	1392	1376
9437184	2560	2560
9699328	2768	2768
9961472	1696	1696
10223616	1184	1184
10485760	1440	1440
10747904	1136	1136
11010048	2432	2432
11272192	2976	2960
11534336	3888	3184
11796480	3920	3888
12058624	2320	2320
12320768	1856	1856
12582912	944	928
12845056	1408	1408
13107200	2016	2016
13369344	992	992
13631488	2416	2416
13893632	1312	1312
14155776	1680	1680
14417920	2224	2224
14680064	1280	1280
14942208	1312	1312
15204352	464	432
15466496	592	592
15728640	352	304
15990784	400	384
16252928	1056	1056
16515072	576	576
16777216	720	672
17301504	736	720
17825792	1888	1888
18350080	2496	2496
18874368	3904	3904
19398656	544	544
19922944	368	368
20447232	128	128
20971520	496	480
21495808	640	352
22020096	400	288
22544384	896	752
23068672	1280	1168
23592960	688	576
24117248	304	304
24641536	1152	1104
25165824	1168	1136
25690112	1408	1408
26214400	704	704
26738688	656	624
27262976	1584	1584
27787264	1456	1456
28311552	688	688
28835840	592	592
29360128	496	496
29884416	1168	848
30408704	1280	928
30932992	576	576
31457280	192	192
31981568	144	144
32505856	192	192
33030144	192	160
33554432	1408	1376
34603008	720	640
35651584	480	480
36700160	272	176
37748736	384	320
38797312	688	304
39845888	16	16
40894464	224	48
41943040	608	400
42991616	512	480
44040192	416	416
45088768	176	176
46137344	320	320
47185920	288	288
48234496	128	128
49283072	16	16
50331648	144	144
51380224	32	32
52428800	256	256
53477376	432	432
54525952	288	288
55574528	2192	2192
56623104	672	672
57671680	736	736
58720256	272	272
59768832	224	224
60817408	448	448
61865984	272	272
62914560	496	496
63963136	208	208
65011712	224	208
66060288	304	192
67108864	288	288
69206016	800	800
71303168	144	128
73400320	784	512
75497472	400	400
77594624	720	656
79691776	784	784
81788928	832	752
83886080	1536	1376
85983232	496	480
88080384	1072	1056
90177536	352	352
92274688	1008	992
94371840	736	736
96468992	1088	1088
98566144	784	784
100663296	688	688
102760448	800	800
104857600	560	560
106954752	1216	1216
109051904	1312	1312
111149056	272	272
113246208	704	704
115343360	416	416
117440512	336	336
119537664	512	512
121634816	1248	1152
123731968	1392	1392
125829120	2768	2768
127926272	1552	1536
130023424	384	384
132120576	224	224
134217728	544	544
138412032	176	176
142606336	256	256
146800640	80	80
150994944	32	32
155189248	144	144
159383552	208	208
163577856	16	16
167772160	0	0
171966464	16	16
176160768	32	32
180355072	16	16
184549376	64	64
188743680	0	0
192937984	0	0
197132288	0	0
201326592	16	16
205520896	48	48
209715200	64	64
213909504	64	64
218103808	96	96
222298112	208	208
226492416	192	192
230686720	368	368
234881024	0	0
239075328	0	0
243269632	0	0
247463936	16	16
251658240	16	16
255852544	0	0
260046848	0	0
264241152	0	0
268435456	48	16
276824064	64	48
285212672	672	64
293601280	240	240
301989888	256	256
310378496	224	208
318767104	128	128
327155712	48	48
335544320	0	0
343932928	96	96
352321536	112	112
360710144	96	96
369098752	32	32
377487360	0	0
385875968	0	0
394264576	0	0
402653184	0	0
411041792	0	0
419430400	0	0
427819008	80	80
436207616	144	144
444596224	0	0
452984832	0	0
461373440	0	0
469762048	0	0
478150656	0	0
486539264	0	0
494927872	0	0
503316480	0	0
511705088	0	0
520093696	0	0
528482304	0	0
536870912	0	0
553648128	0	0
570425344	0	0
587202560	0	0
603979776	0	0
620756992	0	0
637534208	0	0
654311424	0	0
671088640	0	0
687865856	0	0
704643072	0	0
721420288	0	0
738197504	0	0
754974720	0	0
771751936	0	0
788529152	0	0
805306368	0	0
822083584	0	0
838860800	0	0
855638016	0	0
872415232	0	0
889192448	0	0
905969664	0	0
922746880	0	0
939524096	0	0
956301312	0	0
973078528	0	0
989855744	0	0
1006632960	0	0
1023410176	0	0
1040187392	0	0
1056964608	0	0
1073741824	0	0
1107296256	0	0
1140850688	0	0
1174405120	0	0
1207959552	0	0
1241513984	0	0
1275068416	0	0
1308622848	0	0
1342177280	0	0
1375731712	0	0
1409286144	0	0
1442840576	0	0
1476395008	0	0
1509949440	0	0
1543503872	0	0
1577058304	0	0
1610612736	0	0
1644167168	0	0
1677721600	0	0
1711276032	0	0
1744830464	0	0
1778384896	0	0
1811939328	0	0
1845493760	0	0
1879048192	0	0
1912602624	0	0
1946157056	0	0
1979711488	0	0
2013265920	0	0
2046820352	0	0
2080374784	0	0
2113929216	0	0
2147483648	0	0
2214592512	0	0
2281701376	0	0
2348810240	0	0
2415919104	0	0
2483027968	0	0
2550136832	0	0
2617245696	0	0
2684354560	0	0
2751463424	0	0
2818572288	0	0
2885681152	0	0
2952790016	0	0
3019898880	0	0
3087007744	0	0
3154116608	0	0
3221225472	0	0
3288334336	0	0
3355443200	0	0
3422552064	0	0
3489660928	0	0
3556769792	0	0
3623878656	0	0
3690987520	0	0
3758096384	0	0
3825205248	0	0
3892314112	0	0
3959422976	0	0
4026531840	0	0
4093640704	0	0
4160749568	0	0
4227858432	0	0
~~~~~~~~~~Reuse Distance Profiler output end~~~~~~~~~~

DRAM Statistics
 CHANNEL 0
 RQ ROW_BUFFER_HIT:        993  ROW_BUFFER_MISS:       5478
 DBUS AVG_CONGESTED_CYCLE:    3.76057
 WQ ROW_BUFFER_HIT:         64  ROW_BUFFER_MISS:        724  FULL:          0


CPU 0 Branch Prediction Accuracy: 88.4994% MPKI: 15.9598 Average ROB Occupancy at Mispredict: 52.2545
Branch type MPKI
BRANCH_DIRECT_JUMP: 5.86667e-05
BRANCH_INDIRECT: 0.025264
BRANCH_CONDITIONAL: 15.9344
BRANCH_DIRECT_CALL: 7.4e-05
BRANCH_INDIRECT_CALL: 0
BRANCH_RETURN: 4.46667e-05

