
*** ChampSim Multicore Out-of-Order Simulator ***

Warmup Instructions: 500000000
Simulation Instructions: 1500000000
Number of CPUs: 1
Off-chip DRAM Size: 4 GiB Channels: 1 Width: 64-bit Data Rate: 3200 MT/s

VirtualMemory physical capacity: 8588881920 num_ppages: 2096895
VirtualMemory page size: 4096 log2_page_size: 12

CPU 0 runs traces/471.omnetpp-188B.champsimtrace.xz
CPU 0 Bimodal branch predictor
Basic BTB sets: 1024 ways: 8 indirect buffer size: 4096 RAS size: 64
Initializing LRU.
Initializing LRU.
Initializing LRU.
Initializing LRU.
Initializing rdLRU.
Initializing LRU.
Initializing LRU.
Heartbeat CPU 0 instructions: 10000001 cycles: 2500343 heartbeat IPC: 3.99945 cumulative IPC: 3.99945 (Simulation time: 0 hr 0 min 41 sec) 
Heartbeat CPU 0 instructions: 20000002 cycles: 5000349 heartbeat IPC: 3.99999 cumulative IPC: 3.99972 (Simulation time: 0 hr 1 min 21 sec) 
Heartbeat CPU 0 instructions: 30000002 cycles: 7500354 heartbeat IPC: 3.99999 cumulative IPC: 3.99981 (Simulation time: 0 hr 1 min 58 sec) 
Heartbeat CPU 0 instructions: 40000002 cycles: 10000354 heartbeat IPC: 4 cumulative IPC: 3.99986 (Simulation time: 0 hr 2 min 36 sec) 
Heartbeat CPU 0 instructions: 50000003 cycles: 12500461 heartbeat IPC: 3.99983 cumulative IPC: 3.99985 (Simulation time: 0 hr 3 min 14 sec) 
Heartbeat CPU 0 instructions: 60000001 cycles: 15000482 heartbeat IPC: 3.99997 cumulative IPC: 3.99987 (Simulation time: 0 hr 3 min 52 sec) 
Heartbeat CPU 0 instructions: 70000000 cycles: 17500481 heartbeat IPC: 4 cumulative IPC: 3.99989 (Simulation time: 0 hr 4 min 30 sec) 
Heartbeat CPU 0 instructions: 80000000 cycles: 20000481 heartbeat IPC: 4 cumulative IPC: 3.9999 (Simulation time: 0 hr 5 min 7 sec) 
Heartbeat CPU 0 instructions: 90000001 cycles: 22500491 heartbeat IPC: 3.99998 cumulative IPC: 3.99991 (Simulation time: 0 hr 5 min 46 sec) 
Heartbeat CPU 0 instructions: 100000000 cycles: 25000531 heartbeat IPC: 3.99994 cumulative IPC: 3.99992 (Simulation time: 0 hr 6 min 50 sec) 
Heartbeat CPU 0 instructions: 110000000 cycles: 27500531 heartbeat IPC: 4 cumulative IPC: 3.99992 (Simulation time: 0 hr 7 min 43 sec) 
Heartbeat CPU 0 instructions: 120000000 cycles: 30000531 heartbeat IPC: 4 cumulative IPC: 3.99993 (Simulation time: 0 hr 8 min 22 sec) 
Heartbeat CPU 0 instructions: 130000003 cycles: 32500568 heartbeat IPC: 3.99994 cumulative IPC: 3.99993 (Simulation time: 0 hr 9 min 0 sec) 
Heartbeat CPU 0 instructions: 140000003 cycles: 35000568 heartbeat IPC: 4 cumulative IPC: 3.99994 (Simulation time: 0 hr 9 min 38 sec) 
Heartbeat CPU 0 instructions: 150000003 cycles: 37500589 heartbeat IPC: 3.99997 cumulative IPC: 3.99994 (Simulation time: 0 hr 10 min 18 sec) 
Heartbeat CPU 0 instructions: 160000002 cycles: 40000666 heartbeat IPC: 3.99988 cumulative IPC: 3.99993 (Simulation time: 0 hr 11 min 23 sec) 
Heartbeat CPU 0 instructions: 170000002 cycles: 42500741 heartbeat IPC: 3.99988 cumulative IPC: 3.99993 (Simulation time: 0 hr 12 min 7 sec) 
Heartbeat CPU 0 instructions: 180000003 cycles: 45000747 heartbeat IPC: 3.99999 cumulative IPC: 3.99993 (Simulation time: 0 hr 12 min 56 sec) 
Heartbeat CPU 0 instructions: 190000002 cycles: 47500748 heartbeat IPC: 4 cumulative IPC: 3.99994 (Simulation time: 0 hr 13 min 38 sec) 
Heartbeat CPU 0 instructions: 200000001 cycles: 50001324 heartbeat IPC: 3.99908 cumulative IPC: 3.99989 (Simulation time: 0 hr 14 min 24 sec) 
Heartbeat CPU 0 instructions: 210000000 cycles: 52501333 heartbeat IPC: 3.99999 cumulative IPC: 3.9999 (Simulation time: 0 hr 15 min 8 sec) 
Heartbeat CPU 0 instructions: 220000000 cycles: 55001486 heartbeat IPC: 3.99976 cumulative IPC: 3.99989 (Simulation time: 0 hr 15 min 53 sec) 
Heartbeat CPU 0 instructions: 230000001 cycles: 57501502 heartbeat IPC: 3.99997 cumulative IPC: 3.9999 (Simulation time: 0 hr 16 min 39 sec) 
Heartbeat CPU 0 instructions: 240000001 cycles: 60001502 heartbeat IPC: 4 cumulative IPC: 3.9999 (Simulation time: 0 hr 17 min 23 sec) 
Heartbeat CPU 0 instructions: 250000000 cycles: 62501553 heartbeat IPC: 3.99992 cumulative IPC: 3.9999 (Simulation time: 0 hr 18 min 23 sec) 
Heartbeat CPU 0 instructions: 260000000 cycles: 65001553 heartbeat IPC: 4 cumulative IPC: 3.9999 (Simulation time: 0 hr 19 min 5 sec) 
Heartbeat CPU 0 instructions: 270000000 cycles: 67501553 heartbeat IPC: 4 cumulative IPC: 3.99991 (Simulation time: 0 hr 19 min 57 sec) 
Heartbeat CPU 0 instructions: 280000001 cycles: 70001562 heartbeat IPC: 3.99999 cumulative IPC: 3.99991 (Simulation time: 0 hr 20 min 41 sec) 
Heartbeat CPU 0 instructions: 290000002 cycles: 72501576 heartbeat IPC: 3.99998 cumulative IPC: 3.99991 (Simulation time: 0 hr 21 min 20 sec) 
Heartbeat CPU 0 instructions: 300000000 cycles: 75001603 heartbeat IPC: 3.99996 cumulative IPC: 3.99991 (Simulation time: 0 hr 21 min 59 sec) 
Heartbeat CPU 0 instructions: 310000000 cycles: 77501610 heartbeat IPC: 3.99999 cumulative IPC: 3.99992 (Simulation time: 0 hr 22 min 37 sec) 
Heartbeat CPU 0 instructions: 320000000 cycles: 80001610 heartbeat IPC: 4 cumulative IPC: 3.99992 (Simulation time: 0 hr 23 min 19 sec) 
Heartbeat CPU 0 instructions: 330000000 cycles: 82501610 heartbeat IPC: 4 cumulative IPC: 3.99992 (Simulation time: 0 hr 24 min 3 sec) 
Heartbeat CPU 0 instructions: 340000000 cycles: 85001610 heartbeat IPC: 4 cumulative IPC: 3.99992 (Simulation time: 0 hr 24 min 52 sec) 
Heartbeat CPU 0 instructions: 350000001 cycles: 87502198 heartbeat IPC: 3.99906 cumulative IPC: 3.9999 (Simulation time: 0 hr 25 min 47 sec) 
Heartbeat CPU 0 instructions: 360000004 cycles: 90002208 heartbeat IPC: 3.99999 cumulative IPC: 3.9999 (Simulation time: 0 hr 26 min 45 sec) 
Heartbeat CPU 0 instructions: 370000001 cycles: 92502244 heartbeat IPC: 3.99994 cumulative IPC: 3.9999 (Simulation time: 0 hr 27 min 24 sec) 
Heartbeat CPU 0 instructions: 380000001 cycles: 95002244 heartbeat IPC: 4 cumulative IPC: 3.99991 (Simulation time: 0 hr 28 min 3 sec) 
Heartbeat CPU 0 instructions: 390000003 cycles: 97502245 heartbeat IPC: 4 cumulative IPC: 3.99991 (Simulation time: 0 hr 28 min 59 sec) 
Heartbeat CPU 0 instructions: 400000001 cycles: 100002246 heartbeat IPC: 4 cumulative IPC: 3.99991 (Simulation time: 0 hr 29 min 59 sec) 
Heartbeat CPU 0 instructions: 410000000 cycles: 102502272 heartbeat IPC: 3.99996 cumulative IPC: 3.99991 (Simulation time: 0 hr 30 min 52 sec) 
Heartbeat CPU 0 instructions: 420000001 cycles: 105002285 heartbeat IPC: 3.99998 cumulative IPC: 3.99991 (Simulation time: 0 hr 31 min 54 sec) 
Heartbeat CPU 0 instructions: 430000001 cycles: 107502285 heartbeat IPC: 4 cumulative IPC: 3.99991 (Simulation time: 0 hr 32 min 56 sec) 
Heartbeat CPU 0 instructions: 440000001 cycles: 110002285 heartbeat IPC: 4 cumulative IPC: 3.99992 (Simulation time: 0 hr 33 min 35 sec) 
Heartbeat CPU 0 instructions: 450000001 cycles: 112502285 heartbeat IPC: 4 cumulative IPC: 3.99992 (Simulation time: 0 hr 34 min 17 sec) 
Heartbeat CPU 0 instructions: 460000001 cycles: 115002293 heartbeat IPC: 3.99999 cumulative IPC: 3.99992 (Simulation time: 0 hr 34 min 55 sec) 
Heartbeat CPU 0 instructions: 470000003 cycles: 117502296 heartbeat IPC: 4 cumulative IPC: 3.99992 (Simulation time: 0 hr 35 min 47 sec) 
Heartbeat CPU 0 instructions: 480000001 cycles: 120002285 heartbeat IPC: 4.00002 cumulative IPC: 3.99992 (Simulation time: 0 hr 36 min 34 sec) 
Heartbeat CPU 0 instructions: 490000002 cycles: 122502311 heartbeat IPC: 3.99996 cumulative IPC: 3.99992 (Simulation time: 0 hr 37 min 25 sec) 
Heartbeat CPU 0 instructions: 500000001 cycles: 125002305 heartbeat IPC: 4.00001 cumulative IPC: 3.99993 (Simulation time: 0 hr 38 min 11 sec) 

Warmup complete CPU 0 instructions: 500000001 cycles: 125002305 (Simulation time: 0 hr 38 min 11 sec) 

Heartbeat CPU 0 instructions: 510000003 cycles: 154572708 heartbeat IPC: 0.338176 cumulative IPC: 0.338176 (Simulation time: 0 hr 40 min 34 sec) 
Heartbeat CPU 0 instructions: 520000002 cycles: 182929240 heartbeat IPC: 0.352652 cumulative IPC: 0.345263 (Simulation time: 0 hr 42 min 30 sec) 
Heartbeat CPU 0 instructions: 530000001 cycles: 211365456 heartbeat IPC: 0.351664 cumulative IPC: 0.34737 (Simulation time: 0 hr 45 min 9 sec) 
Heartbeat CPU 0 instructions: 540000003 cycles: 239029567 heartbeat IPC: 0.361479 cumulative IPC: 0.350793 (Simulation time: 0 hr 46 min 40 sec) 
Heartbeat CPU 0 instructions: 550000002 cycles: 268943392 heartbeat IPC: 0.334294 cumulative IPC: 0.347364 (Simulation time: 0 hr 48 min 29 sec) 
Heartbeat CPU 0 instructions: 560000002 cycles: 295748275 heartbeat IPC: 0.373066 cumulative IPC: 0.351399 (Simulation time: 0 hr 49 min 49 sec) 
Heartbeat CPU 0 instructions: 570000000 cycles: 323601173 heartbeat IPC: 0.359029 cumulative IPC: 0.352469 (Simulation time: 0 hr 51 min 13 sec) 
Heartbeat CPU 0 instructions: 580000002 cycles: 353490337 heartbeat IPC: 0.334569 cumulative IPC: 0.350128 (Simulation time: 0 hr 53 min 19 sec) 
Heartbeat CPU 0 instructions: 590000000 cycles: 381209857 heartbeat IPC: 0.360757 cumulative IPC: 0.351278 (Simulation time: 0 hr 55 min 28 sec) 
Heartbeat CPU 0 instructions: 600000000 cycles: 409413823 heartbeat IPC: 0.35456 cumulative IPC: 0.351603 (Simulation time: 0 hr 57 min 22 sec) 
Heartbeat CPU 0 instructions: 610000000 cycles: 435988543 heartbeat IPC: 0.376297 cumulative IPC: 0.353713 (Simulation time: 0 hr 59 min 7 sec) 
Heartbeat CPU 0 instructions: 620000001 cycles: 464483817 heartbeat IPC: 0.350935 cumulative IPC: 0.35348 (Simulation time: 1 hr 1 min 11 sec) 
Heartbeat CPU 0 instructions: 630000001 cycles: 493442022 heartbeat IPC: 0.345325 cumulative IPC: 0.352839 (Simulation time: 1 hr 2 min 29 sec) 
Heartbeat CPU 0 instructions: 640000000 cycles: 520416381 heartbeat IPC: 0.370722 cumulative IPC: 0.354059 (Simulation time: 1 hr 3 min 51 sec) 
Heartbeat CPU 0 instructions: 650000000 cycles: 549995443 heartbeat IPC: 0.338077 cumulative IPC: 0.352947 (Simulation time: 1 hr 6 min 4 sec) 
Heartbeat CPU 0 instructions: 660000000 cycles: 577076051 heartbeat IPC: 0.369268 cumulative IPC: 0.353925 (Simulation time: 1 hr 7 min 57 sec) 
Heartbeat CPU 0 instructions: 670000004 cycles: 606564276 heartbeat IPC: 0.339119 cumulative IPC: 0.353018 (Simulation time: 1 hr 9 min 59 sec) 
Heartbeat CPU 0 instructions: 680000000 cycles: 633474918 heartbeat IPC: 0.3716 cumulative IPC: 0.354001 (Simulation time: 1 hr 11 min 51 sec) 
Heartbeat CPU 0 instructions: 690000002 cycles: 661022336 heartbeat IPC: 0.36301 cumulative IPC: 0.354464 (Simulation time: 1 hr 13 min 40 sec) 
Heartbeat CPU 0 instructions: 700000000 cycles: 685682319 heartbeat IPC: 0.405515 cumulative IPC: 0.35671 (Simulation time: 1 hr 15 min 59 sec) 
Heartbeat CPU 0 instructions: 710000001 cycles: 709107097 heartbeat IPC: 0.426898 cumulative IPC: 0.359525 (Simulation time: 1 hr 18 min 7 sec) 
Heartbeat CPU 0 instructions: 720000002 cycles: 730074577 heartbeat IPC: 0.476929 cumulative IPC: 0.363593 (Simulation time: 1 hr 19 min 17 sec) 
Heartbeat CPU 0 instructions: 730000002 cycles: 755330528 heartbeat IPC: 0.395946 cumulative IPC: 0.364889 (Simulation time: 1 hr 20 min 51 sec) 
Heartbeat CPU 0 instructions: 740000001 cycles: 780990112 heartbeat IPC: 0.389718 cumulative IPC: 0.36586 (Simulation time: 1 hr 23 min 3 sec) 
Heartbeat CPU 0 instructions: 750000000 cycles: 807726187 heartbeat IPC: 0.374026 cumulative IPC: 0.36618 (Simulation time: 1 hr 25 min 23 sec) 
Heartbeat CPU 0 instructions: 760000000 cycles: 836231737 heartbeat IPC: 0.350809 cumulative IPC: 0.365564 (Simulation time: 1 hr 27 min 23 sec) 
Heartbeat CPU 0 instructions: 770000000 cycles: 864042087 heartbeat IPC: 0.359578 cumulative IPC: 0.365339 (Simulation time: 1 hr 28 min 49 sec) 
Heartbeat CPU 0 instructions: 780000002 cycles: 892750176 heartbeat IPC: 0.348334 cumulative IPC: 0.364703 (Simulation time: 1 hr 30 min 6 sec) 
Heartbeat CPU 0 instructions: 790000001 cycles: 921422848 heartbeat IPC: 0.348764 cumulative IPC: 0.364129 (Simulation time: 1 hr 32 min 6 sec) 
Heartbeat CPU 0 instructions: 800000002 cycles: 947776051 heartbeat IPC: 0.379461 cumulative IPC: 0.36462 (Simulation time: 1 hr 34 min 26 sec) 
Heartbeat CPU 0 instructions: 810000001 cycles: 974312390 heartbeat IPC: 0.376842 cumulative IPC: 0.365002 (Simulation time: 1 hr 36 min 40 sec) 
Heartbeat CPU 0 instructions: 820000001 cycles: 1003400507 heartbeat IPC: 0.343783 cumulative IPC: 0.364299 (Simulation time: 1 hr 38 min 38 sec) 
Heartbeat CPU 0 instructions: 830000003 cycles: 1029628223 heartbeat IPC: 0.381276 cumulative IPC: 0.364792 (Simulation time: 1 hr 39 min 55 sec) 
Heartbeat CPU 0 instructions: 840000000 cycles: 1056883084 heartbeat IPC: 0.366907 cumulative IPC: 0.364854 (Simulation time: 1 hr 41 min 12 sec) 
Heartbeat CPU 0 instructions: 850000000 cycles: 1083054032 heartbeat IPC: 0.382103 cumulative IPC: 0.365325 (Simulation time: 1 hr 42 min 29 sec) 
Heartbeat CPU 0 instructions: 860000000 cycles: 1112785970 heartbeat IPC: 0.336339 cumulative IPC: 0.364452 (Simulation time: 1 hr 44 min 27 sec) 
Heartbeat CPU 0 instructions: 870000001 cycles: 1139411317 heartbeat IPC: 0.375582 cumulative IPC: 0.364744 (Simulation time: 1 hr 45 min 43 sec) 
Heartbeat CPU 0 instructions: 880000003 cycles: 1167730347 heartbeat IPC: 0.35312 cumulative IPC: 0.364429 (Simulation time: 1 hr 47 min 4 sec) 
Heartbeat CPU 0 instructions: 890000000 cycles: 1197340938 heartbeat IPC: 0.337717 cumulative IPC: 0.363691 (Simulation time: 1 hr 48 min 25 sec) 
Heartbeat CPU 0 instructions: 900000004 cycles: 1224560807 heartbeat IPC: 0.367379 cumulative IPC: 0.363782 (Simulation time: 1 hr 49 min 45 sec) 
Heartbeat CPU 0 instructions: 910000000 cycles: 1254095192 heartbeat IPC: 0.338588 cumulative IPC: 0.363123 (Simulation time: 1 hr 51 min 5 sec) 
Heartbeat CPU 0 instructions: 920000000 cycles: 1282122426 heartbeat IPC: 0.356796 cumulative IPC: 0.36297 (Simulation time: 1 hr 52 min 31 sec) 
Heartbeat CPU 0 instructions: 930000001 cycles: 1312019520 heartbeat IPC: 0.334481 cumulative IPC: 0.362253 (Simulation time: 1 hr 53 min 58 sec) 
Heartbeat CPU 0 instructions: 940000002 cycles: 1340652285 heartbeat IPC: 0.34925 cumulative IPC: 0.361946 (Simulation time: 1 hr 55 min 17 sec) 
Heartbeat CPU 0 instructions: 950000000 cycles: 1366324493 heartbeat IPC: 0.389526 cumulative IPC: 0.362517 (Simulation time: 1 hr 56 min 28 sec) 
Heartbeat CPU 0 instructions: 960000003 cycles: 1393903752 heartbeat IPC: 0.362591 cumulative IPC: 0.362518 (Simulation time: 1 hr 57 min 58 sec) 
Heartbeat CPU 0 instructions: 970000004 cycles: 1421071809 heartbeat IPC: 0.368079 cumulative IPC: 0.362635 (Simulation time: 1 hr 59 min 26 sec) 
Heartbeat CPU 0 instructions: 980000004 cycles: 1450087687 heartbeat IPC: 0.344639 cumulative IPC: 0.362241 (Simulation time: 2 hr 0 min 57 sec) 
Heartbeat CPU 0 instructions: 990000002 cycles: 1475993502 heartbeat IPC: 0.386014 cumulative IPC: 0.362697 (Simulation time: 2 hr 2 min 11 sec) 
Heartbeat CPU 0 instructions: 1000000000 cycles: 1504657278 heartbeat IPC: 0.348872 cumulative IPC: 0.362409 (Simulation time: 2 hr 3 min 35 sec) 
Heartbeat CPU 0 instructions: 1010000000 cycles: 1529380368 heartbeat IPC: 0.40448 cumulative IPC: 0.36315 (Simulation time: 2 hr 4 min 46 sec) 
Heartbeat CPU 0 instructions: 1020000000 cycles: 1558925495 heartbeat IPC: 0.338465 cumulative IPC: 0.362641 (Simulation time: 2 hr 6 min 5 sec) 
Heartbeat CPU 0 instructions: 1030000004 cycles: 1586367028 heartbeat IPC: 0.364411 cumulative IPC: 0.362675 (Simulation time: 2 hr 7 min 26 sec) 
Heartbeat CPU 0 instructions: 1040000001 cycles: 1615656501 heartbeat IPC: 0.341419 cumulative IPC: 0.362257 (Simulation time: 2 hr 9 min 5 sec) 
Heartbeat CPU 0 instructions: 1050000001 cycles: 1643820767 heartbeat IPC: 0.35506 cumulative IPC: 0.362124 (Simulation time: 2 hr 10 min 22 sec) 
Heartbeat CPU 0 instructions: 1060000000 cycles: 1669826862 heartbeat IPC: 0.384525 cumulative IPC: 0.362501 (Simulation time: 2 hr 11 min 41 sec) 
Heartbeat CPU 0 instructions: 1070000002 cycles: 1696614945 heartbeat IPC: 0.3733 cumulative IPC: 0.362685 (Simulation time: 2 hr 13 min 3 sec) 
Heartbeat CPU 0 instructions: 1080000002 cycles: 1721915354 heartbeat IPC: 0.395251 cumulative IPC: 0.363201 (Simulation time: 2 hr 14 min 51 sec) 
Heartbeat CPU 0 instructions: 1090000000 cycles: 1746024708 heartbeat IPC: 0.414777 cumulative IPC: 0.363968 (Simulation time: 2 hr 16 min 18 sec) 
Heartbeat CPU 0 instructions: 1100000000 cycles: 1770442843 heartbeat IPC: 0.409532 cumulative IPC: 0.364644 (Simulation time: 2 hr 17 min 34 sec) 
Heartbeat CPU 0 instructions: 1110000000 cycles: 1795906217 heartbeat IPC: 0.392721 cumulative IPC: 0.365072 (Simulation time: 2 hr 18 min 47 sec) 
Heartbeat CPU 0 instructions: 1120000003 cycles: 1824807696 heartbeat IPC: 0.346003 cumulative IPC: 0.364748 (Simulation time: 2 hr 20 min 7 sec) 
Heartbeat CPU 0 instructions: 1130000000 cycles: 1851883870 heartbeat IPC: 0.369328 cumulative IPC: 0.364819 (Simulation time: 2 hr 21 min 29 sec) 
Heartbeat CPU 0 instructions: 1140000002 cycles: 1879179927 heartbeat IPC: 0.366353 cumulative IPC: 0.364843 (Simulation time: 2 hr 22 min 57 sec) 
Heartbeat CPU 0 instructions: 1150000000 cycles: 1907986590 heartbeat IPC: 0.347142 cumulative IPC: 0.364557 (Simulation time: 2 hr 24 min 18 sec) 
Heartbeat CPU 0 instructions: 1160000000 cycles: 1938461423 heartbeat IPC: 0.32814 cumulative IPC: 0.363945 (Simulation time: 2 hr 25 min 38 sec) 
Heartbeat CPU 0 instructions: 1170000001 cycles: 1964073969 heartbeat IPC: 0.390434 cumulative IPC: 0.364314 (Simulation time: 2 hr 27 min 23 sec) 
Heartbeat CPU 0 instructions: 1180000003 cycles: 1994597416 heartbeat IPC: 0.327617 cumulative IPC: 0.363715 (Simulation time: 2 hr 29 min 40 sec) 
Heartbeat CPU 0 instructions: 1190000000 cycles: 2022266975 heartbeat IPC: 0.361408 cumulative IPC: 0.363681 (Simulation time: 2 hr 30 min 53 sec) 
Heartbeat CPU 0 instructions: 1200000000 cycles: 2049675813 heartbeat IPC: 0.364846 cumulative IPC: 0.363698 (Simulation time: 2 hr 32 min 17 sec) 
Heartbeat CPU 0 instructions: 1210000000 cycles: 2081005190 heartbeat IPC: 0.319189 cumulative IPC: 0.362985 (Simulation time: 2 hr 33 min 38 sec) 
Heartbeat CPU 0 instructions: 1220000000 cycles: 2105728191 heartbeat IPC: 0.404482 cumulative IPC: 0.363503 (Simulation time: 2 hr 35 min 21 sec) 
Heartbeat CPU 0 instructions: 1230000004 cycles: 2134681683 heartbeat IPC: 0.345382 cumulative IPC: 0.363242 (Simulation time: 2 hr 36 min 52 sec) 
Heartbeat CPU 0 instructions: 1240000001 cycles: 2161644375 heartbeat IPC: 0.370883 cumulative IPC: 0.363343 (Simulation time: 2 hr 38 min 7 sec) 
Heartbeat CPU 0 instructions: 1250000003 cycles: 2190290668 heartbeat IPC: 0.349085 cumulative IPC: 0.363145 (Simulation time: 2 hr 39 min 29 sec) 
Heartbeat CPU 0 instructions: 1260000000 cycles: 2218072410 heartbeat IPC: 0.359949 cumulative IPC: 0.363103 (Simulation time: 2 hr 41 min 43 sec) 
Heartbeat CPU 0 instructions: 1270000003 cycles: 2246116403 heartbeat IPC: 0.356583 cumulative IPC: 0.363017 (Simulation time: 2 hr 43 min 54 sec) 
Heartbeat CPU 0 instructions: 1280000003 cycles: 2272650479 heartbeat IPC: 0.376874 cumulative IPC: 0.363188 (Simulation time: 2 hr 45 min 38 sec) 
Heartbeat CPU 0 instructions: 1290000000 cycles: 2299598283 heartbeat IPC: 0.371088 cumulative IPC: 0.363286 (Simulation time: 2 hr 47 min 7 sec) 
Heartbeat CPU 0 instructions: 1300000000 cycles: 2327486064 heartbeat IPC: 0.35858 cumulative IPC: 0.363226 (Simulation time: 2 hr 48 min 23 sec) 
Heartbeat CPU 0 instructions: 1310000003 cycles: 2353903661 heartbeat IPC: 0.378536 cumulative IPC: 0.363408 (Simulation time: 2 hr 49 min 46 sec) 
Heartbeat CPU 0 instructions: 1320000004 cycles: 2383244816 heartbeat IPC: 0.340818 cumulative IPC: 0.363114 (Simulation time: 2 hr 51 min 14 sec) 
Heartbeat CPU 0 instructions: 1330000003 cycles: 2409286069 heartbeat IPC: 0.384006 cumulative IPC: 0.363352 (Simulation time: 2 hr 52 min 27 sec) 
Heartbeat CPU 0 instructions: 1340000000 cycles: 2436780504 heartbeat IPC: 0.36371 cumulative IPC: 0.363357 (Simulation time: 2 hr 53 min 47 sec) 
Heartbeat CPU 0 instructions: 1350000001 cycles: 2463444381 heartbeat IPC: 0.375039 cumulative IPC: 0.36349 (Simulation time: 2 hr 55 min 6 sec) 
Heartbeat CPU 0 instructions: 1360000004 cycles: 2491680937 heartbeat IPC: 0.354151 cumulative IPC: 0.363378 (Simulation time: 2 hr 56 min 46 sec) 
Heartbeat CPU 0 instructions: 1370000002 cycles: 2520080598 heartbeat IPC: 0.352117 cumulative IPC: 0.363245 (Simulation time: 2 hr 58 min 8 sec) 
Heartbeat CPU 0 instructions: 1380000003 cycles: 2547128420 heartbeat IPC: 0.369716 cumulative IPC: 0.363317 (Simulation time: 2 hr 59 min 32 sec) 
Heartbeat CPU 0 instructions: 1390000001 cycles: 2577202988 heartbeat IPC: 0.332507 cumulative IPC: 0.362939 (Simulation time: 3 hr 0 min 54 sec) 
Heartbeat CPU 0 instructions: 1400000001 cycles: 2603065994 heartbeat IPC: 0.386653 cumulative IPC: 0.363187 (Simulation time: 3 hr 2 min 6 sec) 
Heartbeat CPU 0 instructions: 1410000002 cycles: 2631963324 heartbeat IPC: 0.346053 cumulative IPC: 0.362989 (Simulation time: 3 hr 3 min 32 sec) 
Heartbeat CPU 0 instructions: 1420000004 cycles: 2659342157 heartbeat IPC: 0.365246 cumulative IPC: 0.363014 (Simulation time: 3 hr 4 min 52 sec) 
Heartbeat CPU 0 instructions: 1430000004 cycles: 2689048833 heartbeat IPC: 0.336625 cumulative IPC: 0.362708 (Simulation time: 3 hr 6 min 13 sec) 
Heartbeat CPU 0 instructions: 1440000003 cycles: 2715622963 heartbeat IPC: 0.376306 cumulative IPC: 0.362847 (Simulation time: 3 hr 7 min 24 sec) 
Heartbeat CPU 0 instructions: 1450000000 cycles: 2744516781 heartbeat IPC: 0.346095 cumulative IPC: 0.362663 (Simulation time: 3 hr 8 min 49 sec) 
Heartbeat CPU 0 instructions: 1460000000 cycles: 2771164174 heartbeat IPC: 0.375271 cumulative IPC: 0.36279 (Simulation time: 3 hr 10 min 3 sec) 
Heartbeat CPU 0 instructions: 1470000002 cycles: 2801044449 heartbeat IPC: 0.334669 cumulative IPC: 0.362476 (Simulation time: 3 hr 11 min 19 sec) 
Heartbeat CPU 0 instructions: 1480000000 cycles: 2827888014 heartbeat IPC: 0.372529 cumulative IPC: 0.362575 (Simulation time: 3 hr 12 min 36 sec) 
Heartbeat CPU 0 instructions: 1490000000 cycles: 2856461070 heartbeat IPC: 0.34998 cumulative IPC: 0.362444 (Simulation time: 3 hr 13 min 55 sec) 
Heartbeat CPU 0 instructions: 1500000000 cycles: 2885620006 heartbeat IPC: 0.342948 cumulative IPC: 0.362238 (Simulation time: 3 hr 15 min 14 sec) 
Heartbeat CPU 0 instructions: 1510000002 cycles: 2912994038 heartbeat IPC: 0.36531 cumulative IPC: 0.362268 (Simulation time: 3 hr 16 min 30 sec) 
Heartbeat CPU 0 instructions: 1520000001 cycles: 2941349963 heartbeat IPC: 0.35266 cumulative IPC: 0.362171 (Simulation time: 3 hr 17 min 48 sec) 
Heartbeat CPU 0 instructions: 1530000004 cycles: 2968450865 heartbeat IPC: 0.368992 cumulative IPC: 0.362236 (Simulation time: 3 hr 19 min 5 sec) 
Heartbeat CPU 0 instructions: 1540000003 cycles: 2999041817 heartbeat IPC: 0.326894 cumulative IPC: 0.36186 (Simulation time: 3 hr 20 min 31 sec) 
Heartbeat CPU 0 instructions: 1550000000 cycles: 3027918552 heartbeat IPC: 0.346299 cumulative IPC: 0.361705 (Simulation time: 3 hr 21 min 47 sec) 
Heartbeat CPU 0 instructions: 1560000001 cycles: 3055193906 heartbeat IPC: 0.366631 cumulative IPC: 0.361751 (Simulation time: 3 hr 23 min 8 sec) 
Heartbeat CPU 0 instructions: 1570000002 cycles: 3084438466 heartbeat IPC: 0.341944 cumulative IPC: 0.361555 (Simulation time: 3 hr 24 min 28 sec) 
Heartbeat CPU 0 instructions: 1580000003 cycles: 3109914013 heartbeat IPC: 0.392533 cumulative IPC: 0.36182 (Simulation time: 3 hr 25 min 37 sec) 
Heartbeat CPU 0 instructions: 1590000003 cycles: 3137318269 heartbeat IPC: 0.364907 cumulative IPC: 0.361848 (Simulation time: 3 hr 26 min 59 sec) 
Heartbeat CPU 0 instructions: 1600000000 cycles: 3164167802 heartbeat IPC: 0.372446 cumulative IPC: 0.361941 (Simulation time: 3 hr 28 min 22 sec) 
Heartbeat CPU 0 instructions: 1610000004 cycles: 3185948635 heartbeat IPC: 0.459119 cumulative IPC: 0.362633 (Simulation time: 3 hr 29 min 26 sec) 
Heartbeat CPU 0 instructions: 1620000001 cycles: 3208943685 heartbeat IPC: 0.434876 cumulative IPC: 0.363172 (Simulation time: 3 hr 30 min 32 sec) 
Heartbeat CPU 0 instructions: 1630000001 cycles: 3232942247 heartbeat IPC: 0.416692 cumulative IPC: 0.363585 (Simulation time: 3 hr 31 min 42 sec) 
Heartbeat CPU 0 instructions: 1640000000 cycles: 3257698186 heartbeat IPC: 0.403943 cumulative IPC: 0.363904 (Simulation time: 3 hr 32 min 51 sec) 
Heartbeat CPU 0 instructions: 1650000002 cycles: 3283391826 heartbeat IPC: 0.389201 cumulative IPC: 0.36411 (Simulation time: 3 hr 34 min 4 sec) 
Heartbeat CPU 0 instructions: 1660000004 cycles: 3309992314 heartbeat IPC: 0.375933 cumulative IPC: 0.364208 (Simulation time: 3 hr 35 min 22 sec) 
Heartbeat CPU 0 instructions: 1670000004 cycles: 3335473976 heartbeat IPC: 0.392439 cumulative IPC: 0.364432 (Simulation time: 3 hr 36 min 36 sec) 
Heartbeat CPU 0 instructions: 1680000000 cycles: 3363012935 heartbeat IPC: 0.363122 cumulative IPC: 0.364421 (Simulation time: 3 hr 37 min 52 sec) 
Heartbeat CPU 0 instructions: 1690000001 cycles: 3391164870 heartbeat IPC: 0.355215 cumulative IPC: 0.364342 (Simulation time: 3 hr 39 min 11 sec) 
Heartbeat CPU 0 instructions: 1700000000 cycles: 3419011593 heartbeat IPC: 0.359109 cumulative IPC: 0.364298 (Simulation time: 3 hr 40 min 29 sec) 
Heartbeat CPU 0 instructions: 1710000000 cycles: 3445868425 heartbeat IPC: 0.372345 cumulative IPC: 0.364363 (Simulation time: 3 hr 41 min 45 sec) 
Heartbeat CPU 0 instructions: 1720000003 cycles: 3474919108 heartbeat IPC: 0.344226 cumulative IPC: 0.364188 (Simulation time: 3 hr 43 min 2 sec) 
Heartbeat CPU 0 instructions: 1730000001 cycles: 3501223432 heartbeat IPC: 0.380166 cumulative IPC: 0.364313 (Simulation time: 3 hr 44 min 18 sec) 
Heartbeat CPU 0 instructions: 1740000000 cycles: 3531097678 heartbeat IPC: 0.334736 cumulative IPC: 0.364053 (Simulation time: 3 hr 45 min 36 sec) 
Heartbeat CPU 0 instructions: 1750000002 cycles: 3557255136 heartbeat IPC: 0.3823 cumulative IPC: 0.364192 (Simulation time: 3 hr 46 min 50 sec) 
Heartbeat CPU 0 instructions: 1760000000 cycles: 3584033090 heartbeat IPC: 0.373441 cumulative IPC: 0.364264 (Simulation time: 3 hr 48 min 9 sec) 
Heartbeat CPU 0 instructions: 1770000001 cycles: 3612546879 heartbeat IPC: 0.350708 cumulative IPC: 0.364153 (Simulation time: 3 hr 49 min 28 sec) 
Heartbeat CPU 0 instructions: 1780000003 cycles: 3640291287 heartbeat IPC: 0.360433 cumulative IPC: 0.364124 (Simulation time: 3 hr 50 min 41 sec) 
Heartbeat CPU 0 instructions: 1790000000 cycles: 3670521413 heartbeat IPC: 0.330796 cumulative IPC: 0.36384 (Simulation time: 3 hr 52 min 5 sec) 
Heartbeat CPU 0 instructions: 1800000002 cycles: 3698901921 heartbeat IPC: 0.352355 cumulative IPC: 0.363748 (Simulation time: 3 hr 53 min 24 sec) 
Heartbeat CPU 0 instructions: 1810000001 cycles: 3729335320 heartbeat IPC: 0.328586 cumulative IPC: 0.363451 (Simulation time: 3 hr 54 min 45 sec) 
Heartbeat CPU 0 instructions: 1820000000 cycles: 3756950652 heartbeat IPC: 0.362118 cumulative IPC: 0.363441 (Simulation time: 3 hr 56 min 2 sec) 
Heartbeat CPU 0 instructions: 1830000000 cycles: 3786318867 heartbeat IPC: 0.340504 cumulative IPC: 0.363257 (Simulation time: 3 hr 57 min 27 sec) 
Heartbeat CPU 0 instructions: 1840000002 cycles: 3812603425 heartbeat IPC: 0.380452 cumulative IPC: 0.36338 (Simulation time: 3 hr 58 min 45 sec) 
Heartbeat CPU 0 instructions: 1850000000 cycles: 3840108164 heartbeat IPC: 0.363574 cumulative IPC: 0.363381 (Simulation time: 4 hr 0 min 0 sec) 
Heartbeat CPU 0 instructions: 1860000002 cycles: 3866320400 heartbeat IPC: 0.381501 cumulative IPC: 0.363508 (Simulation time: 4 hr 1 min 19 sec) 
Heartbeat CPU 0 instructions: 1870000004 cycles: 3892320891 heartbeat IPC: 0.384608 cumulative IPC: 0.363654 (Simulation time: 4 hr 2 min 32 sec) 
Heartbeat CPU 0 instructions: 1880000004 cycles: 3918080857 heartbeat IPC: 0.388199 cumulative IPC: 0.363821 (Simulation time: 4 hr 3 min 48 sec) 
Heartbeat CPU 0 instructions: 1890000004 cycles: 3946762917 heartbeat IPC: 0.34865 cumulative IPC: 0.363707 (Simulation time: 4 hr 5 min 10 sec) 
Heartbeat CPU 0 instructions: 1900000001 cycles: 3972997871 heartbeat IPC: 0.381171 cumulative IPC: 0.363826 (Simulation time: 4 hr 6 min 26 sec) 
Heartbeat CPU 0 instructions: 1910000000 cycles: 3998385797 heartbeat IPC: 0.393888 cumulative IPC: 0.364023 (Simulation time: 4 hr 7 min 34 sec) 
Heartbeat CPU 0 instructions: 1920000001 cycles: 4023986869 heartbeat IPC: 0.390609 cumulative IPC: 0.364197 (Simulation time: 4 hr 8 min 46 sec) 
Heartbeat CPU 0 instructions: 1930000002 cycles: 4050018590 heartbeat IPC: 0.384147 cumulative IPC: 0.36433 (Simulation time: 4 hr 9 min 57 sec) 
Heartbeat CPU 0 instructions: 1940000000 cycles: 4076268590 heartbeat IPC: 0.380952 cumulative IPC: 0.36444 (Simulation time: 4 hr 11 min 15 sec) 
Heartbeat CPU 0 instructions: 1950000003 cycles: 4103731404 heartbeat IPC: 0.364129 cumulative IPC: 0.364438 (Simulation time: 4 hr 12 min 29 sec) 
Heartbeat CPU 0 instructions: 1960000000 cycles: 4129626837 heartbeat IPC: 0.386168 cumulative IPC: 0.364578 (Simulation time: 4 hr 13 min 42 sec) 
Heartbeat CPU 0 instructions: 1970000001 cycles: 4156797983 heartbeat IPC: 0.368038 cumulative IPC: 0.364602 (Simulation time: 4 hr 14 min 57 sec) 
Heartbeat CPU 0 instructions: 1980000002 cycles: 4182371611 heartbeat IPC: 0.391028 cumulative IPC: 0.364768 (Simulation time: 4 hr 16 min 7 sec) 
Heartbeat CPU 0 instructions: 1990000003 cycles: 4210895712 heartbeat IPC: 0.350581 cumulative IPC: 0.364669 (Simulation time: 4 hr 17 min 31 sec) 
*** Reached end of trace: traces/471.omnetpp-188B.champsimtrace.xz
Heartbeat CPU 0 instructions: 2000000002 cycles: 4236454327 heartbeat IPC: 0.391257 cumulative IPC: 0.364835 (Simulation time: 4 hr 18 min 38 sec) 
Finished CPU 0 instructions: 1500000001 cycles: 4111452022 cumulative IPC: 0.364835 (Simulation time: 4 hr 18 min 38 sec) 

ChampSim completed all CPUs

Region of Interest Statistics

CPU 0 cumulative IPC: 0.364835 instructions: 1500000001 cycles: 4111452022
cpu0_DTLB TOTAL     ACCESS:  371063799  HIT:  342104426  MISS:   28959373
cpu0_DTLB LOAD      ACCESS:  225721504  HIT:  201547200  MISS:   24174304
cpu0_DTLB RFO       ACCESS:  145342295  HIT:  140557226  MISS:    4785069
cpu0_DTLB PREFETCH  ACCESS:          0  HIT:          0  MISS:          0
cpu0_DTLB WRITEBACK ACCESS:          0  HIT:          0  MISS:          0
cpu0_DTLB TRANSLATION ACCESS:          0  HIT:          0  MISS:          0
cpu0_DTLB PREFETCH  REQUESTED:          0  ISSUED:          0  USEFUL:          0  USELESS:          0
cpu0_DTLB AVERAGE MISS LATENCY: 11.0405 cycles
cpu0_ITLB TOTAL     ACCESS:  168918154  HIT:  168152536  MISS:     765618
cpu0_ITLB LOAD      ACCESS:  168918154  HIT:  168152536  MISS:     765618
cpu0_ITLB RFO       ACCESS:          0  HIT:          0  MISS:          0
cpu0_ITLB PREFETCH  ACCESS:          0  HIT:          0  MISS:          0
cpu0_ITLB WRITEBACK ACCESS:          0  HIT:          0  MISS:          0
cpu0_ITLB TRANSLATION ACCESS:          0  HIT:          0  MISS:          0
cpu0_ITLB PREFETCH  REQUESTED:          0  ISSUED:          0  USEFUL:          0  USELESS:          0
cpu0_ITLB AVERAGE MISS LATENCY: 9.17859 cycles
cpu0_L1I TOTAL     ACCESS:  129466989  HIT:  129405931  MISS:      61058
cpu0_L1I LOAD      ACCESS:  129466989  HIT:  129405931  MISS:      61058
cpu0_L1I RFO       ACCESS:          0  HIT:          0  MISS:          0
cpu0_L1I PREFETCH  ACCESS:          0  HIT:          0  MISS:          0
cpu0_L1I WRITEBACK ACCESS:          0  HIT:          0  MISS:          0
cpu0_L1I TRANSLATION ACCESS:          0  HIT:          0  MISS:          0
cpu0_L1I PREFETCH  REQUESTED:          0  ISSUED:          0  USEFUL:          0  USELESS:          0
cpu0_L1I AVERAGE MISS LATENCY: 135.129 cycles
cpu0_STLB TOTAL     ACCESS:   29724991  HIT:   22941621  MISS:    6783370
cpu0_STLB LOAD      ACCESS:   24939922  HIT:   19968971  MISS:    4970951
cpu0_STLB RFO       ACCESS:    4785069  HIT:    2972650  MISS:    1812419
cpu0_STLB PREFETCH  ACCESS:          0  HIT:          0  MISS:          0
cpu0_STLB WRITEBACK ACCESS:          0  HIT:          0  MISS:          0
cpu0_STLB TRANSLATION ACCESS:          0  HIT:          0  MISS:          0
cpu0_STLB PREFETCH  REQUESTED:          0  ISSUED:          0  USEFUL:          0  USELESS:          0
cpu0_STLB AVERAGE MISS LATENCY: 8.28543 cycles
cpu0_L1D TOTAL     ACCESS:  469938626  HIT:  434078556  MISS:   35860070
cpu0_L1D LOAD      ACCESS:  238097882  HIT:  206899000  MISS:   31198882
cpu0_L1D RFO       ACCESS:  225538977  HIT:  220948383  MISS:    4590594
cpu0_L1D PREFETCH  ACCESS:          0  HIT:          0  MISS:          0
cpu0_L1D WRITEBACK ACCESS:          0  HIT:          0  MISS:          0
cpu0_L1D TRANSLATION ACCESS:    6301767  HIT:    6231173  MISS:      70594
cpu0_L1D PREFETCH  REQUESTED:          0  ISSUED:          0  USEFUL:          0  USELESS:          0
cpu0_L1D AVERAGE MISS LATENCY: 148.563 cycles
cpu0_L2C TOTAL     ACCESS:   51270698  HIT:   20346209  MISS:   30924489
cpu0_L2C LOAD      ACCESS:   31259497  HIT:    4677056  MISS:   26582441
cpu0_L2C RFO       ACCESS:    4590586  HIT:     295264  MISS:    4295322
cpu0_L2C PREFETCH  ACCESS:          0  HIT:          0  MISS:          0
cpu0_L2C WRITEBACK ACCESS:   15350021  HIT:   15319126  MISS:      30895
cpu0_L2C TRANSLATION ACCESS:      70594  HIT:      54763  MISS:      15831
cpu0_L2C PREFETCH  REQUESTED:          0  ISSUED:          0  USEFUL:          0  USELESS:          0
cpu0_L2C AVERAGE MISS LATENCY: 159.637 cycles
LLC TOTAL     ACCESS:   44195869  HIT:   19764805  MISS:   24431064
LLC LOAD      ACCESS:   26582423  HIT:    5833664  MISS:   20748759
LLC RFO       ACCESS:    4295314  HIT:     640067  MISS:    3655247
LLC PREFETCH  ACCESS:          0  HIT:          0  MISS:          0
LLC WRITEBACK ACCESS:   13302301  HIT:   13279127  MISS:      23174
LLC TRANSLATION ACCESS:      15831  HIT:      11947  MISS:       3884
LLC PREFETCH  REQUESTED:          0  ISSUED:          0  USEFUL:          0  USELESS:          0
LLC AVERAGE MISS LATENCY: 175.511 cycles
~~~~~~~~~~Reuse Distance Profiler output~~~~~~~~~~
0	119702176	12113152
1	45680896	17545952
2	30987280	13311632
3	24585056	11850912
4	22295872	9837968
5	17360272	9117344
6	15692832	7828352
7	15198528	7224592
8	12655280	6253584
9	12117840	6657888
10	9644016	5259808
11	8971504	4947664
12	7513584	3959152
13	6826576	3382624
14	6046800	2898112
15	5178000	2653856
16	5476752	2684448
17	5021632	2743232
18	4132032	2149072
19	3867408	2099280
20	3681552	1818864
21	2963616	1590912
22	2500096	1346208
23	2894848	1621920
24	2390944	1167776
25	2063408	1056320
26	1551840	688048
27	1461280	631376
28	1464656	699264
29	1355072	683056
30	1358528	765232
31	1469408	818560
32	1421008	786064
33	1203104	670688
34	1212448	648416
35	1117376	578784
36	998736	486688
37	1040688	528368
38	1012256	547872
39	1072656	574528
40	1387440	871600
41	918880	464400
42	872560	398048
43	834656	365456
44	777408	323104
45	697968	296688
46	682128	277504
47	641792	299824
48	703792	350912
49	632144	292384
50	655888	299024
51	663760	280112
52	592048	253248
53	560304	233728
54	574784	226992
55	603376	237136
56	643888	256976
57	680048	286272
58	672768	267520
59	640176	247264
60	652688	239008
61	659312	272960
62	648560	261488
63	606096	257920
64	1246496	595136
66	1119888	527840
68	1179392	519936
70	1111424	488880
72	989728	431744
74	1000992	453856
76	998752	458928
78	975408	441232
80	902976	375712
82	881536	339984
84	904880	361232
86	895152	332592
88	917056	335120
90	931632	356576
92	968256	383056
94	923216	326624
96	925456	312192
98	897168	300496
100	848960	287712
102	795680	304624
104	845360	362768
106	891552	398928
108	910208	441536
110	857696	391280
112	869360	403392
114	864544	446304
116	782976	436112
118	690128	415440
120	706608	452288
122	715440	488176
124	578144	394272
126	557232	347952
128	1085248	692640
132	1222704	838848
136	1087168	833664
140	956224	730032
144	889776	727520
148	802848	665376
152	873120	709392
156	924160	779712
160	820800	692384
164	706016	597728
168	628240	540800
172	568688	505424
176	575040	519664
180	546688	500032
184	542720	500224
188	550640	495632
192	545680	458816
196	562048	489200
200	605520	513440
204	543152	456000
208	521584	433824
212	485696	403520
216	467152	389504
220	476400	402304
224	495264	417632
228	533376	451360
232	566496	484000
236	562288	467680
240	533328	423440
244	523568	402480
248	535504	394832
252	544944	387248
256	1067920	732752
264	1059232	662720
272	1083568	602496
280	979536	584064
288	941328	635408
296	867472	654816
304	893152	704048
312	1096704	919776
320	1527600	1338496
328	1837616	1665168
336	1849424	1648688
344	1964912	1700896
352	2438192	2166240
360	2442944	2208688
368	1920384	1739504
376	1364240	1248160
384	976944	902016
392	922064	830416
400	1060400	940160
408	1287648	1148784
416	1673808	1533792
424	2183888	2033840
432	2805584	2636800
440	3336416	3142768
448	3850320	3601648
456	4456480	4142208
464	4587184	4260272
472	3943536	3672576
480	2936144	2750032
488	1977648	1856832
496	1208976	1131872
504	680784	621952
512	747152	637136
528	468240	385920
544	368800	297328
560	358624	252304
576	346592	250176
592	345088	276608
608	385792	330000
624	440320	376256
640	478368	406352
656	524480	451216
672	593440	515408
688	681808	589856
704	772304	681024
720	915808	832912
736	1122912	1050528
752	1479264	1403168
768	1926624	1824336
784	2195200	2065328
800	1839120	1722560
816	1088352	1022112
832	515680	486832
848	278624	264688
864	231760	223520
880	267504	260816
896	371920	364928
912	443936	436128
928	474752	466096
944	448672	437344
960	353904	342096
976	230592	220944
992	123280	114928
1008	76016	68640
1024	166272	149040
1056	175584	158608
1088	129456	115696
1120	121856	106544
1152	120752	104880
1184	135648	121824
1216	118784	107296
1248	108608	99648
1280	128512	120960
1312	186848	178848
1344	279248	269904
1376	325232	315696
1408	273216	264432
1440	198096	188976
1472	148944	138592
1504	160224	148640
1536	202960	190688
1568	218112	209824
1600	158336	149264
1632	86816	77920
1664	53424	47808
1696	56672	51712
1728	78512	74320
1760	113680	110144
1792	145696	141664
1824	161504	158000
1856	168864	164864
1888	156880	151712
1920	122976	116080
1952	76528	68640
1984	47520	39632
2016	42832	36080
2048	101440	93088
2112	158768	152496
2176	206288	199744
2240	336080	326240
2304	302288	296016
2368	213424	205872
2432	110048	99136
2496	70880	61472
2560	72320	64032
2624	84000	78880
2688	103712	99696
2752	130784	125792
2816	133456	127344
2880	101872	97120
2944	72032	68048
3008	61568	58160
3072	74704	71760
3136	99904	96832
3200	107664	103616
3264	90256	86096
3328	74784	71424
3392	51696	48816
3456	37392	34784
3520	42304	39520
3584	54560	51888
3648	61088	59072
3712	66400	64800
3776	67872	66192
3840	69136	67168
3904	60016	58448
3968	52272	50608
4032	49856	48384
4096	100480	97728
4224	97488	95408
4352	69248	67232
4480	73520	71408
4608	117328	115104
4736	106096	102624
4864	98384	87776
4992	138656	120720
5120	116112	100592
5248	79584	71296
5376	66960	63824
5504	69824	67312
5632	71296	68288
5760	66144	63056
5888	69488	65904
6016	85200	81840
6144	97792	92896
6272	95792	92096
6400	104288	100304
6528	125328	119920
6656	138880	132480
6784	138080	131536
6912	122080	116448
7040	110496	106832
7168	91584	88320
7296	61168	59072
7424	45392	43872
7552	42464	40992
7680	48112	46448
7808	48160	46656
7936	47232	45760
8064	46944	45552
8192	91792	89776
8448	92912	90720
8704	86272	83888
8960	68928	66464
9216	62560	60336
9472	60048	57920
9728	58784	56880
9984	56736	54608
10240	54656	52736
10496	49760	47936
10752	47424	45664
11008	46224	44688
11264	46240	44576
11520	49040	47120
11776	50816	48976
12032	50688	48656
12288	47408	45520
12544	46176	44560
12800	47632	45696
13056	52080	50480
13312	53568	51616
13568	55216	53376
13824	49888	48496
14080	48032	46288
14336	46960	45376
14592	43104	41296
14848	39216	37648
15104	37328	35680
15360	38928	37456
15616	39456	38112
15872	36608	35184
16128	38304	36672
16384	77008	74272
16896	68000	65120
17408	64112	61040
17920	57424	54960
18432	58128	55568
18944	57872	54960
19456	61824	59072
19968	62832	59936
20480	60528	57600
20992	57584	55072
21504	52032	49536
22016	46720	44176
22528	44416	42256
23040	43696	41424
23552	41904	39696
24064	42832	40560
24576	46832	44544
25088	45680	43296
25600	48400	46336
26112	48752	46400
26624	44656	42176
27136	47216	44240
27648	45696	43072
28160	43232	40336
28672	42864	40288
29184	42000	39680
29696	37488	35392
30208	36800	33856
30720	38256	35552
31232	33936	32048
31744	36704	34048
32256	37504	34768
32768	79760	73888
33792	67872	61888
34816	62448	57344
35840	55952	51920
36864	56288	51440
37888	54752	50304
38912	54896	50112
39936	56992	52608
40960	56880	51616
41984	48624	44480
43008	46480	42928
44032	42160	39200
45056	42960	39856
46080	39760	36160
47104	41232	38160
48128	41104	38240
49152	42800	39888
50176	39840	37264
51200	38480	35440
52224	39664	36512
53248	40016	37680
54272	39728	36992
55296	39696	37168
56320	37936	35440
57344	38384	35856
58368	38736	36368
59392	40608	38544
60416	39424	37168
61440	41312	39120
62464	43904	41088
63488	47120	44064
64512	48000	45136
65536	106416	98416
67584	98960	91536
69632	91200	84400
71680	86544	80464
73728	87072	80608
75776	87200	79744
77824	80768	74128
79872	79536	71760
81920	72736	65776
83968	67488	62352
86016	65408	60192
88064	66320	60960
90112	67328	61616
92160	65728	60000
94208	68480	62336
96256	66016	60272
98304	60096	55632
100352	59760	54928
102400	55920	51680
104448	54336	50096
106496	47872	44128
108544	44960	41184
110592	46768	42624
112640	42896	39232
114688	41936	38704
116736	41056	37824
118784	36576	33696
120832	36768	33872
122880	36336	33600
124928	34688	32000
126976	38576	35056
129024	38816	35344
131072	72528	65872
135168	76400	69280
139264	102096	91936
143360	100480	90800
147456	87792	79680
151552	94864	85920
155648	94576	85456
159744	94736	85360
163840	88480	81200
167936	90272	82256
172032	92960	84336
176128	94000	83072
180224	102368	89856
184320	105552	91824
188416	121008	102384
192512	137664	115984
196608	149216	128112
200704	131968	118944
204800	138256	126976
208896	157216	145584
212992	174736	162416
217088	197600	182208
221184	195504	179792
225280	189920	172416
229376	178800	163360
233472	166112	153056
237568	161520	149360
241664	150496	139328
245760	144880	133072
249856	129680	119792
253952	120880	110640
258048	116016	105872
262144	217024	197872
270336	205344	184880
278528	212400	189984
286720	207840	187504
294912	212304	189456
303104	208192	186624
311296	198048	177584
319488	182752	164128
327680	171616	155232
335872	148912	133008
344064	136304	120624
352256	114944	101712
360448	93392	82512
368640	78016	68848
376832	70896	63520
385024	65552	57824
393216	66016	58576
401408	81424	74144
409600	118544	108976
417792	138928	127744
425984	150320	137840
434176	127632	117840
442368	148656	135504
450560	150336	136896
458752	143920	131552
466944	146976	133040
475136	134544	122000
483328	131584	118832
491520	133120	119920
499712	128128	113552
507904	138688	123904
516096	127216	112080
524288	257648	226368
540672	268368	226496
557056	261008	219856
573440	233056	202208
589824	215152	187648
606208	224448	191872
622592	288928	224704
638976	278528	219328
655360	181552	152928
671744	172080	140992
688128	156560	123264
704512	130608	105968
720896	118064	96000
737280	104736	86432
753664	100624	85808
770048	95616	80656
786432	96304	81456
802816	90560	74192
819200	92000	74272
835584	82768	67696
851968	89440	73840
868352	106864	89184
884736	132080	108384
901120	80544	66272
917504	82240	65664
933888	75824	62240
950272	77216	60400
966656	87040	65456
983040	79424	61904
999424	80128	62944
1015808	83808	66384
1032192	73232	58672
1048576	156736	125552
1081344	149040	120528
1114112	156016	125504
1146880	151824	119488
1179648	231232	156368
1212416	160944	116784
1245184	127664	95520
1277952	101232	74224
1310720	89472	67600
1343488	84288	61200
1376256	99104	78256
1409024	95248	73152
1441792	90608	70608
1474560	85328	67776
1507328	77808	60144
1540096	89824	69824
1572864	85680	64016
1605632	84544	65648
1638400	68848	52480
1671168	66416	50320
1703936	60432	45856
1736704	69328	52992
1769472	60976	42448
1802240	64752	45888
1835008	66112	46848
1867776	71056	50048
1900544	59776	44608
1933312	72864	54864
1966080	75904	58096
1998848	75008	57984
2031616	53024	38192
2064384	70864	53136
2097152	148096	110304
2162688	123760	95056
2228224	122304	96496
2293760	112384	87504
2359296	131968	100720
2424832	127152	99344
2490368	129328	103984
2555904	141840	116240
2621440	141088	115760
2686976	152416	125056
2752512	126768	103424
2818048	96880	80080
2883584	118272	96464
2949120	108016	83008
3014656	105632	88864
3080192	84624	72496
3145728	119872	103632
3211264	99936	84624
3276800	102464	87568
3342336	99568	83760
3407872	115104	96304
3473408	85312	71808
3538944	119152	100288
3604480	101680	88704
3670016	156592	135984
3735552	117344	100848
3801088	126752	107152
3866624	94480	79584
3932160	114128	97856
3997696	130848	113936
4063232	129456	114800
4128768	139920	121312
4194304	281936	242208
4325376	222560	188464
4456448	268544	231792
4587520	327584	282704
4718592	381600	337216
4849664	378544	330080
4980736	476688	408800
5111808	481920	433536
5242880	428080	375216
5373952	379040	331760
5505024	544912	482848
5636096	509792	451136
5767168	451984	399872
5898240	431104	365440
6029312	429456	371136
6160384	430768	367360
6291456	448032	381856
6422528	390496	348320
6553600	418352	366800
6684672	395696	331696
6815744	440352	377216
6946816	393072	338976
7077888	320944	275616
7208960	363472	318176
7340032	380368	330240
7471104	350656	309184
7602176	249440	204464
7733248	273376	244016
7864320	225056	188416
7995392	232336	176720
8126464	207728	182800
8257536	98752	72688
8388608	152624	118000
8650752	185520	149440
8912896	177392	156496
9175040	170384	145056
9437184	206944	177312
9699328	156192	128240
9961472	201504	175408
10223616	171264	155568
10485760	178048	162928
10747904	173952	159472
11010048	80816	62816
11272192	131280	121648
11534336	89312	81152
11796480	133648	122096
12058624	138672	124576
12320768	137280	129296
12582912	252896	230784
12845056	252192	236176
13107200	256368	241984
13369344	177360	161152
13631488	281040	263424
13893632	229232	215248
14155776	254336	241296
14417920	196976	181904
14680064	244688	225488
14942208	167424	158496
15204352	126064	116400
15466496	116992	107376
15728640	101296	95776
15990784	61232	56800
16252928	76928	73216
16515072	40624	34768
16777216	153824	143024
17301504	106000	93296
17825792	98800	79200
18350080	125200	107984
18874368	108112	94704
19398656	74928	61072
19922944	69408	62752
20447232	131552	120832
20971520	105392	89856
21495808	122896	113584
22020096	73872	64864
22544384	77744	60992
23068672	141968	133856
23592960	82848	79408
24117248	106384	96032
24641536	66064	62736
25165824	35072	31968
25690112	39856	32928
26214400	38160	34048
26738688	40560	37920
27262976	50224	41584
27787264	91968	79696
28311552	51248	45648
28835840	32432	27216
29360128	43392	36192
29884416	37216	35296
30408704	37376	31392
30932992	27344	26064
31457280	12592	11120
31981568	51952	46512
32505856	30752	28512
33030144	14672	12736
33554432	38192	30256
34603008	50976	44048
35651584	48976	41120
36700160	38512	30896
37748736	46160	41904
38797312	47520	43152
39845888	23328	20960
40894464	42448	39584
41943040	36016	31936
42991616	28688	26512
44040192	19968	14016
45088768	30736	21776
46137344	20608	15824
47185920	13216	11152
48234496	11840	10272
49283072	22000	16848
50331648	20528	17824
51380224	18944	16208
52428800	24096	21392
53477376	32128	25184
54525952	25280	22448
55574528	43152	40208
56623104	18592	14464
57671680	32544	30144
58720256	27168	25536
59768832	19216	17312
60817408	18784	17328
61865984	8320	6816
62914560	15936	13360
63963136	13584	11344
65011712	12144	11008
66060288	5200	4528
67108864	24128	21232
69206016	21264	17872
71303168	8656	5728
73400320	4720	3744
75497472	3472	2752
77594624	5568	4064
79691776	3824	1376
81788928	9600	8464
83886080	2064	1568
85983232	2256	1248
88080384	1168	464
90177536	896	592
92274688	1136	816
94371840	1328	784
96468992	560	448
98566144	416	336
100663296	480	368
102760448	1344	416
104857600	1488	1232
106954752	928	400
109051904	6528	2448
111149056	304	176
113246208	592	160
115343360	2304	1168
117440512	224	160
119537664	496	288
121634816	336	288
123731968	144	112
125829120	384	272
127926272	352	256
130023424	352	304
132120576	208	192
134217728	384	304
138412032	528	496
142606336	256	208
146800640	400	320
150994944	192	112
155189248	112	112
159383552	304	160
163577856	800	448
167772160	368	288
171966464	112	64
176160768	352	96
180355072	320	272
184549376	112	64
188743680	320	304
192937984	224	160
197132288	560	528
201326592	608	512
205520896	1504	400
209715200	448	336
213909504	656	480
218103808	448	384
222298112	720	608
226492416	912	864
230686720	224	176
234881024	320	320
239075328	272	224
243269632	416	96
247463936	240	176
251658240	288	176
255852544	80	64
260046848	192	160
264241152	160	160
268435456	320	288
276824064	192	192
285212672	384	368
293601280	176	112
301989888	160	96
310378496	1600	1328
318767104	1840	1840
327155712	288	240
335544320	96	80
343932928	64	64
352321536	176	144
360710144	32	16
369098752	192	176
377487360	128	112
385875968	112	112
394264576	304	288
402653184	48	48
411041792	48	32
419430400	48	48
427819008	112	112
436207616	368	336
444596224	16	16
452984832	64	64
461373440	112	96
469762048	0	0
478150656	0	0
486539264	96	64
494927872	80	80
503316480	32	16
511705088	16	16
520093696	0	0
528482304	0	0
536870912	0	0
553648128	16	16
570425344	0	0
587202560	0	0
603979776	0	0
620756992	0	0
637534208	0	0
654311424	0	0
671088640	0	0
687865856	0	0
704643072	0	0
721420288	0	0
738197504	0	0
754974720	0	0
771751936	0	0
788529152	0	0
805306368	0	0
822083584	0	0
838860800	0	0
855638016	0	0
872415232	0	0
889192448	0	0
905969664	0	0
922746880	0	0
939524096	0	0
956301312	0	0
973078528	0	0
989855744	0	0
1006632960	0	0
1023410176	0	0
1040187392	0	0
1056964608	0	0
1073741824	0	0
1107296256	0	0
1140850688	0	0
1174405120	0	0
1207959552	0	0
1241513984	0	0
1275068416	0	0
1308622848	0	0
1342177280	0	0
1375731712	0	0
1409286144	0	0
1442840576	0	0
1476395008	0	0
1509949440	0	0
1543503872	0	0
1577058304	0	0
1610612736	0	0
1644167168	0	0
1677721600	0	0
1711276032	0	0
1744830464	0	0
1778384896	0	0
1811939328	0	0
1845493760	0	0
1879048192	0	0
1912602624	0	0
1946157056	0	0
1979711488	0	0
2013265920	0	0
2046820352	0	0
2080374784	0	0
2113929216	0	0
2147483648	0	0
2214592512	0	0
2281701376	0	0
2348810240	0	0
2415919104	0	0
2483027968	0	0
2550136832	0	0
2617245696	0	0
2684354560	0	0
2751463424	0	0
2818572288	0	0
2885681152	0	0
2952790016	0	0
3019898880	0	0
3087007744	0	0
3154116608	0	0
3221225472	0	0
3288334336	0	0
3355443200	0	0
3422552064	0	0
3489660928	0	0
3556769792	0	0
3623878656	0	0
3690987520	0	0
3758096384	0	0
3825205248	0	0
3892314112	0	0
3959422976	0	0
4026531840	0	0
4093640704	0	0
4160749568	0	0
4227858432	0	0
~~~~~~~~~~Reuse Distance Profiler output end~~~~~~~~~~

DRAM Statistics
 CHANNEL 0
 RQ ROW_BUFFER_HIT:    1129609  ROW_BUFFER_MISS:   23276225
 DBUS AVG_CONGESTED_CYCLE:    3.91362
 WQ ROW_BUFFER_HIT:    2975039  ROW_BUFFER_MISS:    7683392  FULL:          0


CPU 0 Branch Prediction Accuracy: 93.1311% MPKI: 16.5791 Average ROB Occupancy at Mispredict: 38.2882
Branch type MPKI
BRANCH_DIRECT_JUMP: 7.33333e-06
BRANCH_INDIRECT: 0.116236
BRANCH_CONDITIONAL: 15.8534
BRANCH_DIRECT_CALL: 0
BRANCH_INDIRECT_CALL: 0.12057
BRANCH_RETURN: 0.488881

