
*** ChampSim Multicore Out-of-Order Simulator ***

Warmup Instructions: 500000000
Simulation Instructions: 1500000000
Number of CPUs: 1
Off-chip DRAM Size: 4 GiB Channels: 1 Width: 64-bit Data Rate: 3200 MT/s

VirtualMemory physical capacity: 8588881920 num_ppages: 2096895
VirtualMemory page size: 4096 log2_page_size: 12

CPU 0 runs traces/473.astar-153B.champsimtrace.xz
CPU 0 Bimodal branch predictor
Basic BTB sets: 1024 ways: 8 indirect buffer size: 4096 RAS size: 64
Initializing LRU.
Initializing LRU.
Initializing LRU.
Initializing LRU.
Initializing rdLRU.
Initializing LRU.
Initializing LRU.
Heartbeat CPU 0 instructions: 10000001 cycles: 2500081 heartbeat IPC: 3.99987 cumulative IPC: 3.99987 (Simulation time: 0 hr 0 min 55 sec) 
Heartbeat CPU 0 instructions: 20000001 cycles: 5000081 heartbeat IPC: 4 cumulative IPC: 3.99994 (Simulation time: 0 hr 1 min 49 sec) 
Heartbeat CPU 0 instructions: 30000001 cycles: 7500081 heartbeat IPC: 4 cumulative IPC: 3.99996 (Simulation time: 0 hr 2 min 39 sec) 
Heartbeat CPU 0 instructions: 40000001 cycles: 10000081 heartbeat IPC: 4 cumulative IPC: 3.99997 (Simulation time: 0 hr 3 min 17 sec) 
Heartbeat CPU 0 instructions: 50000001 cycles: 12500081 heartbeat IPC: 4 cumulative IPC: 3.99997 (Simulation time: 0 hr 3 min 50 sec) 
Heartbeat CPU 0 instructions: 60000001 cycles: 15000081 heartbeat IPC: 4 cumulative IPC: 3.99998 (Simulation time: 0 hr 4 min 24 sec) 
Heartbeat CPU 0 instructions: 70000001 cycles: 17500081 heartbeat IPC: 4 cumulative IPC: 3.99998 (Simulation time: 0 hr 5 min 10 sec) 
Heartbeat CPU 0 instructions: 80000001 cycles: 20000081 heartbeat IPC: 4 cumulative IPC: 3.99998 (Simulation time: 0 hr 6 min 5 sec) 
Heartbeat CPU 0 instructions: 90000001 cycles: 22500081 heartbeat IPC: 4 cumulative IPC: 3.99999 (Simulation time: 0 hr 7 min 3 sec) 
Heartbeat CPU 0 instructions: 100000001 cycles: 25000081 heartbeat IPC: 4 cumulative IPC: 3.99999 (Simulation time: 0 hr 7 min 38 sec) 
Heartbeat CPU 0 instructions: 110000001 cycles: 27500081 heartbeat IPC: 4 cumulative IPC: 3.99999 (Simulation time: 0 hr 8 min 22 sec) 
Heartbeat CPU 0 instructions: 120000001 cycles: 30000081 heartbeat IPC: 4 cumulative IPC: 3.99999 (Simulation time: 0 hr 8 min 56 sec) 
Heartbeat CPU 0 instructions: 130000001 cycles: 32500081 heartbeat IPC: 4 cumulative IPC: 3.99999 (Simulation time: 0 hr 9 min 29 sec) 
Heartbeat CPU 0 instructions: 140000001 cycles: 35000081 heartbeat IPC: 4 cumulative IPC: 3.99999 (Simulation time: 0 hr 10 min 11 sec) 
Heartbeat CPU 0 instructions: 150000001 cycles: 37500081 heartbeat IPC: 4 cumulative IPC: 3.99999 (Simulation time: 0 hr 11 min 6 sec) 
Heartbeat CPU 0 instructions: 160000001 cycles: 40000081 heartbeat IPC: 4 cumulative IPC: 3.99999 (Simulation time: 0 hr 11 min 47 sec) 
Heartbeat CPU 0 instructions: 170000001 cycles: 42500081 heartbeat IPC: 4 cumulative IPC: 3.99999 (Simulation time: 0 hr 12 min 39 sec) 
Heartbeat CPU 0 instructions: 180000001 cycles: 45000081 heartbeat IPC: 4 cumulative IPC: 3.99999 (Simulation time: 0 hr 13 min 19 sec) 
Heartbeat CPU 0 instructions: 190000001 cycles: 47500081 heartbeat IPC: 4 cumulative IPC: 3.99999 (Simulation time: 0 hr 14 min 5 sec) 
Heartbeat CPU 0 instructions: 200000001 cycles: 50000081 heartbeat IPC: 4 cumulative IPC: 3.99999 (Simulation time: 0 hr 14 min 48 sec) 
Heartbeat CPU 0 instructions: 210000001 cycles: 52500081 heartbeat IPC: 4 cumulative IPC: 3.99999 (Simulation time: 0 hr 15 min 35 sec) 
Heartbeat CPU 0 instructions: 220000001 cycles: 55000081 heartbeat IPC: 4 cumulative IPC: 3.99999 (Simulation time: 0 hr 16 min 23 sec) 
Heartbeat CPU 0 instructions: 230000001 cycles: 57500081 heartbeat IPC: 4 cumulative IPC: 3.99999 (Simulation time: 0 hr 17 min 4 sec) 
Heartbeat CPU 0 instructions: 240000001 cycles: 60000081 heartbeat IPC: 4 cumulative IPC: 3.99999 (Simulation time: 0 hr 17 min 51 sec) 
Heartbeat CPU 0 instructions: 250000001 cycles: 62500081 heartbeat IPC: 4 cumulative IPC: 3.99999 (Simulation time: 0 hr 18 min 36 sec) 
Heartbeat CPU 0 instructions: 260000001 cycles: 65000081 heartbeat IPC: 4 cumulative IPC: 3.99999 (Simulation time: 0 hr 19 min 24 sec) 
Heartbeat CPU 0 instructions: 270000001 cycles: 67500081 heartbeat IPC: 4 cumulative IPC: 4 (Simulation time: 0 hr 20 min 13 sec) 
Heartbeat CPU 0 instructions: 280000001 cycles: 70000081 heartbeat IPC: 4 cumulative IPC: 4 (Simulation time: 0 hr 20 min 56 sec) 
Heartbeat CPU 0 instructions: 290000001 cycles: 72500081 heartbeat IPC: 4 cumulative IPC: 4 (Simulation time: 0 hr 21 min 29 sec) 
Heartbeat CPU 0 instructions: 300000001 cycles: 75000081 heartbeat IPC: 4 cumulative IPC: 4 (Simulation time: 0 hr 22 min 2 sec) 
Heartbeat CPU 0 instructions: 310000001 cycles: 77500081 heartbeat IPC: 4 cumulative IPC: 4 (Simulation time: 0 hr 22 min 35 sec) 
Heartbeat CPU 0 instructions: 320000001 cycles: 80000081 heartbeat IPC: 4 cumulative IPC: 4 (Simulation time: 0 hr 23 min 13 sec) 
Heartbeat CPU 0 instructions: 330000001 cycles: 82500081 heartbeat IPC: 4 cumulative IPC: 4 (Simulation time: 0 hr 23 min 53 sec) 
Heartbeat CPU 0 instructions: 340000001 cycles: 85000081 heartbeat IPC: 4 cumulative IPC: 4 (Simulation time: 0 hr 24 min 46 sec) 
Heartbeat CPU 0 instructions: 350000001 cycles: 87500081 heartbeat IPC: 4 cumulative IPC: 4 (Simulation time: 0 hr 25 min 38 sec) 
Heartbeat CPU 0 instructions: 360000001 cycles: 90000081 heartbeat IPC: 4 cumulative IPC: 4 (Simulation time: 0 hr 26 min 33 sec) 
Heartbeat CPU 0 instructions: 370000001 cycles: 92500081 heartbeat IPC: 4 cumulative IPC: 4 (Simulation time: 0 hr 27 min 22 sec) 
Heartbeat CPU 0 instructions: 380000001 cycles: 95000081 heartbeat IPC: 4 cumulative IPC: 4 (Simulation time: 0 hr 28 min 10 sec) 
Heartbeat CPU 0 instructions: 390000001 cycles: 97500081 heartbeat IPC: 4 cumulative IPC: 4 (Simulation time: 0 hr 28 min 52 sec) 
Heartbeat CPU 0 instructions: 400000001 cycles: 100000081 heartbeat IPC: 4 cumulative IPC: 4 (Simulation time: 0 hr 29 min 25 sec) 
Heartbeat CPU 0 instructions: 410000001 cycles: 102500081 heartbeat IPC: 4 cumulative IPC: 4 (Simulation time: 0 hr 29 min 58 sec) 
Heartbeat CPU 0 instructions: 420000001 cycles: 105000081 heartbeat IPC: 4 cumulative IPC: 4 (Simulation time: 0 hr 30 min 33 sec) 
Heartbeat CPU 0 instructions: 430000001 cycles: 107500081 heartbeat IPC: 4 cumulative IPC: 4 (Simulation time: 0 hr 31 min 6 sec) 
Heartbeat CPU 0 instructions: 440000001 cycles: 110000081 heartbeat IPC: 4 cumulative IPC: 4 (Simulation time: 0 hr 31 min 39 sec) 
Heartbeat CPU 0 instructions: 450000001 cycles: 112500081 heartbeat IPC: 4 cumulative IPC: 4 (Simulation time: 0 hr 32 min 13 sec) 
Heartbeat CPU 0 instructions: 460000001 cycles: 115000081 heartbeat IPC: 4 cumulative IPC: 4 (Simulation time: 0 hr 32 min 49 sec) 
Heartbeat CPU 0 instructions: 470000001 cycles: 117500081 heartbeat IPC: 4 cumulative IPC: 4 (Simulation time: 0 hr 33 min 22 sec) 
Heartbeat CPU 0 instructions: 480000001 cycles: 120000081 heartbeat IPC: 4 cumulative IPC: 4 (Simulation time: 0 hr 34 min 15 sec) 
Heartbeat CPU 0 instructions: 490000001 cycles: 122500081 heartbeat IPC: 4 cumulative IPC: 4 (Simulation time: 0 hr 35 min 4 sec) 
Heartbeat CPU 0 instructions: 500000001 cycles: 125000081 heartbeat IPC: 4 cumulative IPC: 4 (Simulation time: 0 hr 35 min 57 sec) 

Warmup complete CPU 0 instructions: 500000001 cycles: 125000081 (Simulation time: 0 hr 35 min 57 sec) 

Heartbeat CPU 0 instructions: 510000001 cycles: 137722630 heartbeat IPC: 0.786006 cumulative IPC: 0.786006 (Simulation time: 0 hr 36 min 55 sec) 
Heartbeat CPU 0 instructions: 520000004 cycles: 150749153 heartbeat IPC: 0.767665 cumulative IPC: 0.776727 (Simulation time: 0 hr 37 min 59 sec) 
Heartbeat CPU 0 instructions: 530000001 cycles: 163577446 heartbeat IPC: 0.779527 cumulative IPC: 0.777658 (Simulation time: 0 hr 39 min 9 sec) 
Heartbeat CPU 0 instructions: 540000003 cycles: 176407132 heartbeat IPC: 0.779442 cumulative IPC: 0.778103 (Simulation time: 0 hr 40 min 19 sec) 
Heartbeat CPU 0 instructions: 550000001 cycles: 189534521 heartbeat IPC: 0.761766 cumulative IPC: 0.77478 (Simulation time: 0 hr 41 min 12 sec) 
Heartbeat CPU 0 instructions: 560000001 cycles: 202478846 heartbeat IPC: 0.772539 cumulative IPC: 0.774406 (Simulation time: 0 hr 42 min 28 sec) 
Heartbeat CPU 0 instructions: 570000000 cycles: 215150951 heartbeat IPC: 0.789135 cumulative IPC: 0.776476 (Simulation time: 0 hr 43 min 44 sec) 
Heartbeat CPU 0 instructions: 580000001 cycles: 227555308 heartbeat IPC: 0.806168 cumulative IPC: 0.780068 (Simulation time: 0 hr 44 min 39 sec) 
Heartbeat CPU 0 instructions: 590000001 cycles: 240385677 heartbeat IPC: 0.779401 cumulative IPC: 0.779993 (Simulation time: 0 hr 45 min 40 sec) 
Heartbeat CPU 0 instructions: 600000004 cycles: 253000802 heartbeat IPC: 0.792699 cumulative IPC: 0.781246 (Simulation time: 0 hr 46 min 34 sec) 
Heartbeat CPU 0 instructions: 610000000 cycles: 265787797 heartbeat IPC: 0.782044 cumulative IPC: 0.781318 (Simulation time: 0 hr 47 min 39 sec) 
Heartbeat CPU 0 instructions: 620000003 cycles: 278165641 heartbeat IPC: 0.807895 cumulative IPC: 0.783466 (Simulation time: 0 hr 48 min 25 sec) 
Heartbeat CPU 0 instructions: 630000000 cycles: 290800939 heartbeat IPC: 0.791433 cumulative IPC: 0.784073 (Simulation time: 0 hr 49 min 9 sec) 
Heartbeat CPU 0 instructions: 640000003 cycles: 303384138 heartbeat IPC: 0.794711 cumulative IPC: 0.784824 (Simulation time: 0 hr 50 min 18 sec) 
Heartbeat CPU 0 instructions: 650000000 cycles: 315905268 heartbeat IPC: 0.79865 cumulative IPC: 0.78573 (Simulation time: 0 hr 51 min 32 sec) 
Heartbeat CPU 0 instructions: 660000001 cycles: 328431957 heartbeat IPC: 0.798296 cumulative IPC: 0.786504 (Simulation time: 0 hr 52 min 42 sec) 
Heartbeat CPU 0 instructions: 670000002 cycles: 341084949 heartbeat IPC: 0.790327 cumulative IPC: 0.786728 (Simulation time: 0 hr 53 min 59 sec) 
Heartbeat CPU 0 instructions: 680000004 cycles: 353784291 heartbeat IPC: 0.787443 cumulative IPC: 0.786768 (Simulation time: 0 hr 55 min 15 sec) 
Heartbeat CPU 0 instructions: 690000002 cycles: 366411843 heartbeat IPC: 0.791919 cumulative IPC: 0.787037 (Simulation time: 0 hr 56 min 31 sec) 
Heartbeat CPU 0 instructions: 700000003 cycles: 379440231 heartbeat IPC: 0.767555 cumulative IPC: 0.786039 (Simulation time: 0 hr 57 min 50 sec) 
Heartbeat CPU 0 instructions: 710000004 cycles: 392248071 heartbeat IPC: 0.780772 cumulative IPC: 0.785787 (Simulation time: 0 hr 58 min 56 sec) 
Heartbeat CPU 0 instructions: 720000001 cycles: 404767564 heartbeat IPC: 0.798754 cumulative IPC: 0.786367 (Simulation time: 0 hr 59 min 48 sec) 
Heartbeat CPU 0 instructions: 730000000 cycles: 417393232 heartbeat IPC: 0.792037 cumulative IPC: 0.786612 (Simulation time: 1 hr 0 min 32 sec) 
Heartbeat CPU 0 instructions: 740000000 cycles: 430059513 heartbeat IPC: 0.789498 cumulative IPC: 0.786732 (Simulation time: 1 hr 1 min 15 sec) 
Heartbeat CPU 0 instructions: 750000000 cycles: 443121957 heartbeat IPC: 0.765554 cumulative IPC: 0.785862 (Simulation time: 1 hr 2 min 24 sec) 
Heartbeat CPU 0 instructions: 760000004 cycles: 456445991 heartbeat IPC: 0.750524 cumulative IPC: 0.784442 (Simulation time: 1 hr 3 min 33 sec) 
Heartbeat CPU 0 instructions: 770000002 cycles: 469747091 heartbeat IPC: 0.751817 cumulative IPC: 0.783183 (Simulation time: 1 hr 4 min 50 sec) 
Heartbeat CPU 0 instructions: 780000001 cycles: 482847391 heartbeat IPC: 0.763341 cumulative IPC: 0.782457 (Simulation time: 1 hr 5 min 57 sec) 
Heartbeat CPU 0 instructions: 790000000 cycles: 495794147 heartbeat IPC: 0.772394 cumulative IPC: 0.782105 (Simulation time: 1 hr 6 min 41 sec) 
Heartbeat CPU 0 instructions: 800000000 cycles: 508927368 heartbeat IPC: 0.761428 cumulative IPC: 0.781398 (Simulation time: 1 hr 7 min 25 sec) 
Heartbeat CPU 0 instructions: 810000003 cycles: 521842791 heartbeat IPC: 0.774268 cumulative IPC: 0.781166 (Simulation time: 1 hr 8 min 22 sec) 
Heartbeat CPU 0 instructions: 820000003 cycles: 534910676 heartbeat IPC: 0.765235 cumulative IPC: 0.780658 (Simulation time: 1 hr 9 min 21 sec) 
Heartbeat CPU 0 instructions: 830000003 cycles: 547962307 heartbeat IPC: 0.766188 cumulative IPC: 0.780212 (Simulation time: 1 hr 10 min 5 sec) 
Heartbeat CPU 0 instructions: 840000003 cycles: 560666979 heartbeat IPC: 0.787112 cumulative IPC: 0.780413 (Simulation time: 1 hr 10 min 48 sec) 
Heartbeat CPU 0 instructions: 850000002 cycles: 573177906 heartbeat IPC: 0.799301 cumulative IPC: 0.78094 (Simulation time: 1 hr 11 min 32 sec) 
Heartbeat CPU 0 instructions: 860000000 cycles: 586002338 heartbeat IPC: 0.779761 cumulative IPC: 0.780907 (Simulation time: 1 hr 12 min 33 sec) 
Heartbeat CPU 0 instructions: 870000000 cycles: 598959460 heartbeat IPC: 0.771776 cumulative IPC: 0.780658 (Simulation time: 1 hr 13 min 29 sec) 
Heartbeat CPU 0 instructions: 880000002 cycles: 611714336 heartbeat IPC: 0.784014 cumulative IPC: 0.780746 (Simulation time: 1 hr 14 min 13 sec) 
Heartbeat CPU 0 instructions: 890000004 cycles: 624857905 heartbeat IPC: 0.760828 cumulative IPC: 0.780222 (Simulation time: 1 hr 14 min 57 sec) 
Heartbeat CPU 0 instructions: 900000002 cycles: 638459668 heartbeat IPC: 0.735199 cumulative IPC: 0.779029 (Simulation time: 1 hr 15 min 58 sec) 
Heartbeat CPU 0 instructions: 910000002 cycles: 652028534 heartbeat IPC: 0.736981 cumulative IPC: 0.777947 (Simulation time: 1 hr 16 min 47 sec) 
Heartbeat CPU 0 instructions: 920000004 cycles: 665350041 heartbeat IPC: 0.750666 cumulative IPC: 0.777274 (Simulation time: 1 hr 17 min 35 sec) 
Heartbeat CPU 0 instructions: 930000002 cycles: 678476117 heartbeat IPC: 0.761842 cumulative IPC: 0.776908 (Simulation time: 1 hr 18 min 39 sec) 
Heartbeat CPU 0 instructions: 940000000 cycles: 691594507 heartbeat IPC: 0.762289 cumulative IPC: 0.77657 (Simulation time: 1 hr 19 min 41 sec) 
Heartbeat CPU 0 instructions: 950000002 cycles: 704783188 heartbeat IPC: 0.758226 cumulative IPC: 0.776152 (Simulation time: 1 hr 20 min 25 sec) 
Heartbeat CPU 0 instructions: 960000000 cycles: 717992003 heartbeat IPC: 0.75707 cumulative IPC: 0.775727 (Simulation time: 1 hr 21 min 11 sec) 
Heartbeat CPU 0 instructions: 970000000 cycles: 730842561 heartbeat IPC: 0.778176 cumulative IPC: 0.775779 (Simulation time: 1 hr 21 min 53 sec) 
Heartbeat CPU 0 instructions: 980000000 cycles: 743761749 heartbeat IPC: 0.774042 cumulative IPC: 0.775743 (Simulation time: 1 hr 22 min 41 sec) 
Heartbeat CPU 0 instructions: 990000002 cycles: 756525710 heartbeat IPC: 0.783456 cumulative IPC: 0.775899 (Simulation time: 1 hr 23 min 24 sec) 
Heartbeat CPU 0 instructions: 1000000001 cycles: 769468147 heartbeat IPC: 0.772652 cumulative IPC: 0.775834 (Simulation time: 1 hr 24 min 8 sec) 
Heartbeat CPU 0 instructions: 1010000003 cycles: 782583221 heartbeat IPC: 0.762482 cumulative IPC: 0.775567 (Simulation time: 1 hr 24 min 53 sec) 
Heartbeat CPU 0 instructions: 1020000001 cycles: 795557323 heartbeat IPC: 0.770766 cumulative IPC: 0.775474 (Simulation time: 1 hr 25 min 37 sec) 
Heartbeat CPU 0 instructions: 1030000003 cycles: 808655292 heartbeat IPC: 0.763477 cumulative IPC: 0.775245 (Simulation time: 1 hr 26 min 53 sec) 
Heartbeat CPU 0 instructions: 1040000000 cycles: 821839711 heartbeat IPC: 0.758471 cumulative IPC: 0.774927 (Simulation time: 1 hr 27 min 45 sec) 
Heartbeat CPU 0 instructions: 1050000004 cycles: 835205763 heartbeat IPC: 0.748164 cumulative IPC: 0.774424 (Simulation time: 1 hr 29 min 6 sec) 
Heartbeat CPU 0 instructions: 1060000002 cycles: 848514192 heartbeat IPC: 0.751403 cumulative IPC: 0.774 (Simulation time: 1 hr 30 min 27 sec) 
Heartbeat CPU 0 instructions: 1070000003 cycles: 861834453 heartbeat IPC: 0.750736 cumulative IPC: 0.77358 (Simulation time: 1 hr 31 min 23 sec) 
Heartbeat CPU 0 instructions: 1080000003 cycles: 875597831 heartbeat IPC: 0.726566 cumulative IPC: 0.772717 (Simulation time: 1 hr 32 min 10 sec) 
Heartbeat CPU 0 instructions: 1090000004 cycles: 889291450 heartbeat IPC: 0.730267 cumulative IPC: 0.771957 (Simulation time: 1 hr 33 min 6 sec) 
Heartbeat CPU 0 instructions: 1100000000 cycles: 902670206 heartbeat IPC: 0.747453 cumulative IPC: 0.771535 (Simulation time: 1 hr 33 min 57 sec) 
Heartbeat CPU 0 instructions: 1110000003 cycles: 915762021 heartbeat IPC: 0.763836 cumulative IPC: 0.771408 (Simulation time: 1 hr 34 min 43 sec) 
Heartbeat CPU 0 instructions: 1120000000 cycles: 928651005 heartbeat IPC: 0.775856 cumulative IPC: 0.771479 (Simulation time: 1 hr 35 min 30 sec) 
Heartbeat CPU 0 instructions: 1130000004 cycles: 941233339 heartbeat IPC: 0.794765 cumulative IPC: 0.771838 (Simulation time: 1 hr 36 min 26 sec) 
Heartbeat CPU 0 instructions: 1140000003 cycles: 954148449 heartbeat IPC: 0.774287 cumulative IPC: 0.771876 (Simulation time: 1 hr 37 min 10 sec) 
Heartbeat CPU 0 instructions: 1150000000 cycles: 967600492 heartbeat IPC: 0.743381 cumulative IPC: 0.771421 (Simulation time: 1 hr 37 min 57 sec) 
Heartbeat CPU 0 instructions: 1160000000 cycles: 980847423 heartbeat IPC: 0.754892 cumulative IPC: 0.771166 (Simulation time: 1 hr 39 min 8 sec) 
Heartbeat CPU 0 instructions: 1170000003 cycles: 993852978 heartbeat IPC: 0.768902 cumulative IPC: 0.771132 (Simulation time: 1 hr 39 min 53 sec) 
Heartbeat CPU 0 instructions: 1180000001 cycles: 1006870396 heartbeat IPC: 0.768201 cumulative IPC: 0.771088 (Simulation time: 1 hr 40 min 38 sec) 
Heartbeat CPU 0 instructions: 1190000000 cycles: 1019810691 heartbeat IPC: 0.77278 cumulative IPC: 0.771113 (Simulation time: 1 hr 41 min 22 sec) 
Heartbeat CPU 0 instructions: 1200000000 cycles: 1032982316 heartbeat IPC: 0.759208 cumulative IPC: 0.77094 (Simulation time: 1 hr 42 min 17 sec) 
Heartbeat CPU 0 instructions: 1210000001 cycles: 1046234661 heartbeat IPC: 0.754584 cumulative IPC: 0.770705 (Simulation time: 1 hr 43 min 18 sec) 
Heartbeat CPU 0 instructions: 1220000004 cycles: 1059617578 heartbeat IPC: 0.747221 cumulative IPC: 0.770369 (Simulation time: 1 hr 44 min 21 sec) 
Heartbeat CPU 0 instructions: 1230000003 cycles: 1073245414 heartbeat IPC: 0.733792 cumulative IPC: 0.769843 (Simulation time: 1 hr 45 min 44 sec) 
Heartbeat CPU 0 instructions: 1240000002 cycles: 1087085501 heartbeat IPC: 0.722539 cumulative IPC: 0.769162 (Simulation time: 1 hr 46 min 36 sec) 
Heartbeat CPU 0 instructions: 1250000000 cycles: 1100777133 heartbeat IPC: 0.730373 cumulative IPC: 0.768618 (Simulation time: 1 hr 47 min 51 sec) 
Heartbeat CPU 0 instructions: 1260000001 cycles: 1114506780 heartbeat IPC: 0.728351 cumulative IPC: 0.768059 (Simulation time: 1 hr 49 min 13 sec) 
Heartbeat CPU 0 instructions: 1270000000 cycles: 1128230516 heartbeat IPC: 0.728664 cumulative IPC: 0.767521 (Simulation time: 1 hr 50 min 36 sec) 
Heartbeat CPU 0 instructions: 1280000000 cycles: 1142056460 heartbeat IPC: 0.723278 cumulative IPC: 0.766919 (Simulation time: 1 hr 52 min 0 sec) 
Heartbeat CPU 0 instructions: 1290000003 cycles: 1155776235 heartbeat IPC: 0.728875 cumulative IPC: 0.766413 (Simulation time: 1 hr 53 min 24 sec) 
Heartbeat CPU 0 instructions: 1300000003 cycles: 1169530124 heartbeat IPC: 0.727067 cumulative IPC: 0.765895 (Simulation time: 1 hr 54 min 48 sec) 
Heartbeat CPU 0 instructions: 1310000003 cycles: 1183032625 heartbeat IPC: 0.740604 cumulative IPC: 0.765572 (Simulation time: 1 hr 56 min 10 sec) 
Heartbeat CPU 0 instructions: 1320000003 cycles: 1196622602 heartbeat IPC: 0.735836 cumulative IPC: 0.765195 (Simulation time: 1 hr 57 min 25 sec) 
Heartbeat CPU 0 instructions: 1330000004 cycles: 1210077502 heartbeat IPC: 0.743224 cumulative IPC: 0.764922 (Simulation time: 1 hr 58 min 14 sec) 
Heartbeat CPU 0 instructions: 1340000000 cycles: 1222898265 heartbeat IPC: 0.779984 cumulative IPC: 0.765098 (Simulation time: 1 hr 59 min 9 sec) 
Heartbeat CPU 0 instructions: 1350000000 cycles: 1235941403 heartbeat IPC: 0.766687 cumulative IPC: 0.765117 (Simulation time: 2 hr 0 min 8 sec) 
Heartbeat CPU 0 instructions: 1360000001 cycles: 1249700433 heartbeat IPC: 0.726795 cumulative IPC: 0.764648 (Simulation time: 2 hr 1 min 20 sec) 
Heartbeat CPU 0 instructions: 1370000001 cycles: 1263554333 heartbeat IPC: 0.721818 cumulative IPC: 0.764127 (Simulation time: 2 hr 2 min 13 sec) 
Heartbeat CPU 0 instructions: 1380000000 cycles: 1277309141 heartbeat IPC: 0.727018 cumulative IPC: 0.763684 (Simulation time: 2 hr 3 min 0 sec) 
Heartbeat CPU 0 instructions: 1390000001 cycles: 1291033217 heartbeat IPC: 0.728647 cumulative IPC: 0.763272 (Simulation time: 2 hr 3 min 46 sec) 
Heartbeat CPU 0 instructions: 1400000003 cycles: 1304779412 heartbeat IPC: 0.727474 cumulative IPC: 0.762855 (Simulation time: 2 hr 4 min 33 sec) 
Heartbeat CPU 0 instructions: 1410000004 cycles: 1318595418 heartbeat IPC: 0.723798 cumulative IPC: 0.762402 (Simulation time: 2 hr 5 min 19 sec) 
Heartbeat CPU 0 instructions: 1420000003 cycles: 1332333048 heartbeat IPC: 0.727928 cumulative IPC: 0.76201 (Simulation time: 2 hr 6 min 5 sec) 
Heartbeat CPU 0 instructions: 1430000003 cycles: 1345985843 heartbeat IPC: 0.732451 cumulative IPC: 0.76168 (Simulation time: 2 hr 6 min 52 sec) 
Heartbeat CPU 0 instructions: 1440000003 cycles: 1359688995 heartbeat IPC: 0.729759 cumulative IPC: 0.761325 (Simulation time: 2 hr 7 min 38 sec) 
Heartbeat CPU 0 instructions: 1450000003 cycles: 1373535481 heartbeat IPC: 0.722205 cumulative IPC: 0.760891 (Simulation time: 2 hr 8 min 25 sec) 
Heartbeat CPU 0 instructions: 1460000003 cycles: 1387302267 heartbeat IPC: 0.726386 cumulative IPC: 0.760515 (Simulation time: 2 hr 9 min 33 sec) 
Heartbeat CPU 0 instructions: 1470000000 cycles: 1400771123 heartbeat IPC: 0.742453 cumulative IPC: 0.760325 (Simulation time: 2 hr 10 min 26 sec) 
Heartbeat CPU 0 instructions: 1480000002 cycles: 1414125315 heartbeat IPC: 0.748829 cumulative IPC: 0.760205 (Simulation time: 2 hr 11 min 11 sec) 
Heartbeat CPU 0 instructions: 1490000001 cycles: 1427262189 heartbeat IPC: 0.761216 cumulative IPC: 0.760216 (Simulation time: 2 hr 11 min 55 sec) 
Heartbeat CPU 0 instructions: 1500000002 cycles: 1440817895 heartbeat IPC: 0.737697 cumulative IPC: 0.759984 (Simulation time: 2 hr 12 min 40 sec) 
Heartbeat CPU 0 instructions: 1510000003 cycles: 1454547475 heartbeat IPC: 0.728354 cumulative IPC: 0.759657 (Simulation time: 2 hr 13 min 26 sec) 
Heartbeat CPU 0 instructions: 1520000000 cycles: 1468479171 heartbeat IPC: 0.717788 cumulative IPC: 0.759223 (Simulation time: 2 hr 14 min 12 sec) 
Heartbeat CPU 0 instructions: 1530000000 cycles: 1482267285 heartbeat IPC: 0.725262 cumulative IPC: 0.758878 (Simulation time: 2 hr 14 min 56 sec) 
Heartbeat CPU 0 instructions: 1540000000 cycles: 1495974092 heartbeat IPC: 0.729564 cumulative IPC: 0.758585 (Simulation time: 2 hr 15 min 41 sec) 
Heartbeat CPU 0 instructions: 1550000000 cycles: 1509613851 heartbeat IPC: 0.733151 cumulative IPC: 0.758334 (Simulation time: 2 hr 16 min 26 sec) 
Heartbeat CPU 0 instructions: 1560000001 cycles: 1523256301 heartbeat IPC: 0.733006 cumulative IPC: 0.758087 (Simulation time: 2 hr 17 min 45 sec) 
Heartbeat CPU 0 instructions: 1570000001 cycles: 1537043099 heartbeat IPC: 0.725332 cumulative IPC: 0.757767 (Simulation time: 2 hr 18 min 55 sec) 
Heartbeat CPU 0 instructions: 1580000002 cycles: 1550849752 heartbeat IPC: 0.724289 cumulative IPC: 0.757443 (Simulation time: 2 hr 19 min 50 sec) 
Heartbeat CPU 0 instructions: 1590000000 cycles: 1564773403 heartbeat IPC: 0.718202 cumulative IPC: 0.757064 (Simulation time: 2 hr 20 min 39 sec) 
Heartbeat CPU 0 instructions: 1600000001 cycles: 1578547506 heartbeat IPC: 0.726 cumulative IPC: 0.756769 (Simulation time: 2 hr 21 min 25 sec) 
Heartbeat CPU 0 instructions: 1610000000 cycles: 1592339190 heartbeat IPC: 0.725075 cumulative IPC: 0.756471 (Simulation time: 2 hr 22 min 27 sec) 
Heartbeat CPU 0 instructions: 1620000000 cycles: 1606224743 heartbeat IPC: 0.720173 cumulative IPC: 0.756131 (Simulation time: 2 hr 23 min 15 sec) 
Heartbeat CPU 0 instructions: 1630000000 cycles: 1620011701 heartbeat IPC: 0.725323 cumulative IPC: 0.755847 (Simulation time: 2 hr 24 min 1 sec) 
Heartbeat CPU 0 instructions: 1640000002 cycles: 1633807731 heartbeat IPC: 0.724846 cumulative IPC: 0.755563 (Simulation time: 2 hr 24 min 47 sec) 
Heartbeat CPU 0 instructions: 1650000001 cycles: 1647183603 heartbeat IPC: 0.747615 cumulative IPC: 0.755494 (Simulation time: 2 hr 25 min 32 sec) 
Heartbeat CPU 0 instructions: 1660000000 cycles: 1660945344 heartbeat IPC: 0.726652 cumulative IPC: 0.755235 (Simulation time: 2 hr 26 min 19 sec) 
Heartbeat CPU 0 instructions: 1670000000 cycles: 1674887677 heartbeat IPC: 0.71724 cumulative IPC: 0.754893 (Simulation time: 2 hr 27 min 6 sec) 
Heartbeat CPU 0 instructions: 1680000004 cycles: 1688647796 heartbeat IPC: 0.726738 cumulative IPC: 0.754646 (Simulation time: 2 hr 27 min 51 sec) 
Heartbeat CPU 0 instructions: 1690000004 cycles: 1702474084 heartbeat IPC: 0.72326 cumulative IPC: 0.754371 (Simulation time: 2 hr 28 min 37 sec) 
Heartbeat CPU 0 instructions: 1700000000 cycles: 1716066103 heartbeat IPC: 0.735726 cumulative IPC: 0.754211 (Simulation time: 2 hr 29 min 22 sec) 
Heartbeat CPU 0 instructions: 1710000001 cycles: 1729573161 heartbeat IPC: 0.740354 cumulative IPC: 0.754095 (Simulation time: 2 hr 30 min 7 sec) 
Heartbeat CPU 0 instructions: 1720000001 cycles: 1743228858 heartbeat IPC: 0.732295 cumulative IPC: 0.753911 (Simulation time: 2 hr 30 min 54 sec) 
Heartbeat CPU 0 instructions: 1730000000 cycles: 1756917688 heartbeat IPC: 0.730523 cumulative IPC: 0.753715 (Simulation time: 2 hr 31 min 41 sec) 
Heartbeat CPU 0 instructions: 1740000004 cycles: 1770404928 heartbeat IPC: 0.741442 cumulative IPC: 0.753614 (Simulation time: 2 hr 32 min 27 sec) 
Heartbeat CPU 0 instructions: 1750000003 cycles: 1784210050 heartbeat IPC: 0.724369 cumulative IPC: 0.753371 (Simulation time: 2 hr 33 min 12 sec) 
Heartbeat CPU 0 instructions: 1760000003 cycles: 1797939088 heartbeat IPC: 0.728383 cumulative IPC: 0.753166 (Simulation time: 2 hr 34 min 0 sec) 
Heartbeat CPU 0 instructions: 1770000000 cycles: 1811601980 heartbeat IPC: 0.731909 cumulative IPC: 0.752993 (Simulation time: 2 hr 34 min 56 sec) 
Heartbeat CPU 0 instructions: 1780000001 cycles: 1824924047 heartbeat IPC: 0.750634 cumulative IPC: 0.752975 (Simulation time: 2 hr 35 min 49 sec) 
Heartbeat CPU 0 instructions: 1790000001 cycles: 1837632640 heartbeat IPC: 0.786869 cumulative IPC: 0.753226 (Simulation time: 2 hr 36 min 37 sec) 
Heartbeat CPU 0 instructions: 1800000000 cycles: 1849535068 heartbeat IPC: 0.840165 cumulative IPC: 0.753826 (Simulation time: 2 hr 37 min 16 sec) 
Heartbeat CPU 0 instructions: 1810000000 cycles: 1862126708 heartbeat IPC: 0.794178 cumulative IPC: 0.754119 (Simulation time: 2 hr 37 min 57 sec) 
Heartbeat CPU 0 instructions: 1820000004 cycles: 1875174915 heartbeat IPC: 0.766389 cumulative IPC: 0.75421 (Simulation time: 2 hr 38 min 39 sec) 
Heartbeat CPU 0 instructions: 1830000003 cycles: 1888046138 heartbeat IPC: 0.776927 cumulative IPC: 0.754376 (Simulation time: 2 hr 39 min 41 sec) 
Heartbeat CPU 0 instructions: 1840000002 cycles: 1901297592 heartbeat IPC: 0.754634 cumulative IPC: 0.754378 (Simulation time: 2 hr 40 min 29 sec) 
Heartbeat CPU 0 instructions: 1850000000 cycles: 1914620226 heartbeat IPC: 0.750602 cumulative IPC: 0.75435 (Simulation time: 2 hr 41 min 16 sec) 
Heartbeat CPU 0 instructions: 1860000002 cycles: 1927331177 heartbeat IPC: 0.786723 cumulative IPC: 0.754578 (Simulation time: 2 hr 42 min 2 sec) 
Heartbeat CPU 0 instructions: 1870000000 cycles: 1940191522 heartbeat IPC: 0.777584 cumulative IPC: 0.754741 (Simulation time: 2 hr 42 min 47 sec) 
Heartbeat CPU 0 instructions: 1880000004 cycles: 1953046340 heartbeat IPC: 0.777919 cumulative IPC: 0.754904 (Simulation time: 2 hr 43 min 30 sec) 
Heartbeat CPU 0 instructions: 1890000001 cycles: 1965620080 heartbeat IPC: 0.795308 cumulative IPC: 0.75518 (Simulation time: 2 hr 44 min 12 sec) 
Heartbeat CPU 0 instructions: 1900000001 cycles: 1978233365 heartbeat IPC: 0.792815 cumulative IPC: 0.755436 (Simulation time: 2 hr 45 min 7 sec) 
Heartbeat CPU 0 instructions: 1910000002 cycles: 1991469527 heartbeat IPC: 0.755506 cumulative IPC: 0.755437 (Simulation time: 2 hr 46 min 19 sec) 
Heartbeat CPU 0 instructions: 1920000000 cycles: 2005190759 heartbeat IPC: 0.728797 cumulative IPC: 0.755243 (Simulation time: 2 hr 47 min 14 sec) 
Heartbeat CPU 0 instructions: 1930000001 cycles: 2018345079 heartbeat IPC: 0.760207 cumulative IPC: 0.755277 (Simulation time: 2 hr 48 min 29 sec) 
Heartbeat CPU 0 instructions: 1940000000 cycles: 2029648760 heartbeat IPC: 0.884667 cumulative IPC: 0.756045 (Simulation time: 2 hr 49 min 35 sec) 
Heartbeat CPU 0 instructions: 1950000003 cycles: 2041021706 heartbeat IPC: 0.87928 cumulative IPC: 0.756776 (Simulation time: 2 hr 50 min 14 sec) 
Heartbeat CPU 0 instructions: 1960000003 cycles: 2052384277 heartbeat IPC: 0.880082 cumulative IPC: 0.757503 (Simulation time: 2 hr 50 min 54 sec) 
Heartbeat CPU 0 instructions: 1970000000 cycles: 2063887843 heartbeat IPC: 0.869295 cumulative IPC: 0.758167 (Simulation time: 2 hr 51 min 33 sec) 
Heartbeat CPU 0 instructions: 1980000003 cycles: 2075263092 heartbeat IPC: 0.879102 cumulative IPC: 0.758872 (Simulation time: 2 hr 52 min 12 sec) 
Heartbeat CPU 0 instructions: 1990000000 cycles: 2086695964 heartbeat IPC: 0.874671 cumulative IPC: 0.759547 (Simulation time: 2 hr 52 min 50 sec) 
*** Reached end of trace: traces/473.astar-153B.champsimtrace.xz
Heartbeat CPU 0 instructions: 2000000004 cycles: 2098103600 heartbeat IPC: 0.876606 cumulative IPC: 0.760224 (Simulation time: 2 hr 53 min 30 sec) 
Finished CPU 0 instructions: 1500000003 cycles: 1973103519 cumulative IPC: 0.760224 (Simulation time: 2 hr 53 min 30 sec) 

ChampSim completed all CPUs

Region of Interest Statistics

CPU 0 cumulative IPC: 0.760224 instructions: 1500000003 cycles: 1973103519
cpu0_DTLB TOTAL     ACCESS:  374175926  HIT:  368834974  MISS:    5340952
cpu0_DTLB LOAD      ACCESS:  293601530  HIT:  288331088  MISS:    5270442
cpu0_DTLB RFO       ACCESS:   80574396  HIT:   80503886  MISS:      70510
cpu0_DTLB PREFETCH  ACCESS:          0  HIT:          0  MISS:          0
cpu0_DTLB WRITEBACK ACCESS:          0  HIT:          0  MISS:          0
cpu0_DTLB TRANSLATION ACCESS:          0  HIT:          0  MISS:          0
cpu0_DTLB PREFETCH  REQUESTED:          0  ISSUED:          0  USEFUL:          0  USELESS:          0
cpu0_DTLB AVERAGE MISS LATENCY: 10.374 cycles
cpu0_ITLB TOTAL     ACCESS:  171071253  HIT:  171071246  MISS:          7
cpu0_ITLB LOAD      ACCESS:  171071253  HIT:  171071246  MISS:          7
cpu0_ITLB RFO       ACCESS:          0  HIT:          0  MISS:          0
cpu0_ITLB PREFETCH  ACCESS:          0  HIT:          0  MISS:          0
cpu0_ITLB WRITEBACK ACCESS:          0  HIT:          0  MISS:          0
cpu0_ITLB TRANSLATION ACCESS:          0  HIT:          0  MISS:          0
cpu0_ITLB PREFETCH  REQUESTED:          0  ISSUED:          0  USEFUL:          0  USELESS:          0
cpu0_ITLB AVERAGE MISS LATENCY: 218.571 cycles
cpu0_L1I TOTAL     ACCESS:        195  HIT:        111  MISS:         84
cpu0_L1I LOAD      ACCESS:        195  HIT:        111  MISS:         84
cpu0_L1I RFO       ACCESS:          0  HIT:          0  MISS:          0
cpu0_L1I PREFETCH  ACCESS:          0  HIT:          0  MISS:          0
cpu0_L1I WRITEBACK ACCESS:          0  HIT:          0  MISS:          0
cpu0_L1I TRANSLATION ACCESS:          0  HIT:          0  MISS:          0
cpu0_L1I PREFETCH  REQUESTED:          0  ISSUED:          0  USEFUL:          0  USELESS:          0
cpu0_L1I AVERAGE MISS LATENCY: 216.655 cycles
cpu0_STLB TOTAL     ACCESS:    5340959  HIT:    4471637  MISS:     869322
cpu0_STLB LOAD      ACCESS:    5270449  HIT:    4414740  MISS:     855709
cpu0_STLB RFO       ACCESS:      70510  HIT:      56897  MISS:      13613
cpu0_STLB PREFETCH  ACCESS:          0  HIT:          0  MISS:          0
cpu0_STLB WRITEBACK ACCESS:          0  HIT:          0  MISS:          0
cpu0_STLB TRANSLATION ACCESS:          0  HIT:          0  MISS:          0
cpu0_STLB PREFETCH  REQUESTED:          0  ISSUED:          0  USEFUL:          0  USELESS:          0
cpu0_STLB AVERAGE MISS LATENCY: 8.36514 cycles
cpu0_L1D TOTAL     ACCESS:  453620327  HIT:  445659681  MISS:    7960646
cpu0_L1D LOAD      ACCESS:  256697472  HIT:  249551176  MISS:    7146296
cpu0_L1D RFO       ACCESS:  196055577  HIT:  195248199  MISS:     807378
cpu0_L1D PREFETCH  ACCESS:          0  HIT:          0  MISS:          0
cpu0_L1D WRITEBACK ACCESS:          0  HIT:          0  MISS:          0
cpu0_L1D TRANSLATION ACCESS:     867278  HIT:     860306  MISS:       6972
cpu0_L1D PREFETCH  REQUESTED:          0  ISSUED:          0  USEFUL:          0  USELESS:          0
cpu0_L1D AVERAGE MISS LATENCY: 85.7748 cycles
cpu0_L2C TOTAL     ACCESS:   10839482  HIT:    7346012  MISS:    3493470
cpu0_L2C LOAD      ACCESS:    7142914  HIT:    4021897  MISS:    3121017
cpu0_L2C RFO       ACCESS:     807377  HIT:     435395  MISS:     371982
cpu0_L2C PREFETCH  ACCESS:          0  HIT:          0  MISS:          0
cpu0_L2C WRITEBACK ACCESS:    2882219  HIT:    2882088  MISS:        131
cpu0_L2C TRANSLATION ACCESS:       6972  HIT:       6632  MISS:        340
cpu0_L2C PREFETCH  REQUESTED:          0  ISSUED:          0  USEFUL:          0  USELESS:          0
cpu0_L2C AVERAGE MISS LATENCY: 170.382 cycles
LLC TOTAL     ACCESS:    5680988  HIT:    2459430  MISS:    3221558
LLC LOAD      ACCESS:    3121001  HIT:     248149  MISS:    2872852
LLC RFO       ACCESS:     371982  HIT:      23465  MISS:     348517
LLC PREFETCH  ACCESS:          0  HIT:          0  MISS:          0
LLC WRITEBACK ACCESS:    2187665  HIT:    2187567  MISS:         98
LLC TRANSLATION ACCESS:        340  HIT:        249  MISS:         91
LLC PREFETCH  REQUESTED:          0  ISSUED:          0  USEFUL:          0  USELESS:          0
LLC AVERAGE MISS LATENCY: 161.992 cycles
~~~~~~~~~~Reuse Distance Profiler output~~~~~~~~~~
0	149703968	13741600
1	46841216	21640816
2	33180592	23257024
3	47847024	37165952
4	28952304	24794080
5	18476880	16099664
6	17803536	13545632
7	22681584	17991616
8	18131792	11715040
9	17368064	13305216
10	11755552	7848128
11	9934384	7407584
12	11695232	8720560
13	13202576	10781584
14	9237648	6967520
15	8196800	6444912
16	7301616	5921584
17	9829136	8211024
18	9500832	5681392
19	7603840	4182800
20	4632608	3323856
21	5175040	3629808
22	4278160	2934944
23	3618528	2532352
24	3457664	2341216
25	3681216	2660128
26	3742304	2688928
27	3545040	2516000
28	3070864	2184864
29	2294688	1259456
30	1965312	1232032
31	1580096	994144
32	1352096	878416
33	1594400	1170768
34	1043008	715440
35	921520	508656
36	737984	494416
37	878912	715264
38	793632	721072
39	964240	860576
40	696240	646928
41	542432	470976
42	558240	382928
43	710496	566688
44	951728	691840
45	973936	832816
46	683584	584224
47	452416	348768
48	490080	394272
49	587040	478416
50	594000	480896
51	393952	300112
52	510064	432624
53	447712	322368
54	460800	371856
55	487440	323600
56	558496	435824
57	543968	358768
58	852864	747392
59	485024	348144
60	556320	398592
61	399248	317408
62	299424	217232
63	328944	230576
64	591136	478768
66	502000	395872
68	718336	566672
70	820848	611328
72	748640	399824
74	673888	378368
76	737120	393568
78	624480	312176
80	569088	294784
82	560832	306048
84	417712	248256
86	519056	342560
88	642512	346528
90	553920	270400
92	609344	334128
94	405968	267296
96	492080	350496
98	438432	269424
100	414272	225328
102	399872	231200
104	499488	284144
106	506752	309296
108	553696	262400
110	497184	332272
112	506656	306176
114	476816	267552
116	499024	275040
118	526688	285968
120	432688	242576
122	315248	237328
124	319360	211216
126	284288	194704
128	709104	545520
132	880896	764784
136	920528	834480
140	1430176	1339664
144	1480000	1397728
148	862480	796400
152	462032	393840
156	299536	249136
160	202720	167392
164	184768	146224
168	194416	155072
172	162352	132208
176	122864	92512
180	148528	120928
184	192992	169008
188	91424	72224
192	134144	113920
196	130448	109648
200	221872	203376
204	163344	147440
208	135488	116656
212	114000	94368
216	69168	53968
220	56688	40752
224	46592	31104
228	32304	20288
232	23888	12688
236	18240	7904
240	16368	7264
244	13104	5440
248	11904	5136
252	10336	3728
256	15888	7248
264	12256	6672
272	14496	9824
280	17200	13520
288	16608	13696
296	17840	15680
304	19728	18064
312	19856	17872
320	25872	23888
328	23616	22000
336	13248	11616
344	15424	13728
352	13744	11968
360	10224	8848
368	16304	14752
376	34096	33056
384	35680	34336
392	25712	24768
400	33120	32160
408	29680	28736
416	27392	26640
424	25312	24784
432	16240	15616
440	28192	27728
448	22960	22208
456	24688	24304
464	25648	25056
472	30832	30176
480	29456	28720
488	47168	46752
496	59280	58848
504	53648	53088
512	44096	42880
528	27248	26448
544	31504	30928
560	30736	30272
576	10784	10352
592	3408	2992
608	1936	1568
624	2720	2352
640	2144	1856
656	2240	1904
672	2128	1872
688	2544	2288
704	2288	1888
720	1216	976
736	800	544
752	1040	736
768	1648	1376
784	1344	1040
800	1664	1328
816	2240	1952
832	1696	1312
848	1360	1136
864	1008	688
880	976	656
896	944	688
912	1248	928
928	1328	1008
944	1296	1088
960	1872	1632
976	992	784
992	816	480
1008	1296	960
1024	1328	880
1056	1536	880
1088	1328	864
1120	2000	1392
1152	1360	992
1184	1248	832
1216	1616	1056
1248	1680	1088
1280	1632	976
1312	1376	848
1344	1200	640
1376	1168	784
1408	1264	656
1440	1072	576
1472	1600	1040
1504	1136	640
1536	1072	608
1568	1296	752
1600	1200	656
1632	1072	656
1664	992	656
1696	1088	560
1728	1232	752
1760	1520	880
1792	1008	672
1824	1200	720
1856	1360	816
1888	1184	640
1920	1280	720
1952	1344	768
1984	1296	784
2016	1328	864
2048	3008	1968
2112	2752	1712
2176	2688	1664
2240	2448	1552
2304	2720	1824
2368	3040	2224
2432	2912	2032
2496	3520	2496
2560	3488	2576
2624	3296	2320
2688	2672	1904
2752	3776	2704
2816	3872	2864
2880	3504	2752
2944	3680	2720
3008	3792	2944
3072	3456	2528
3136	3984	2784
3200	3600	2752
3264	3456	2592
3328	3712	2864
3392	3952	2928
3456	4032	3040
3520	4288	3344
3584	4480	3696
3648	4240	3248
3712	4576	3504
3776	4240	3232
3840	3872	2912
3904	4016	2880
3968	3984	3120
4032	3872	2976
4096	8496	6704
4224	8080	6080
4352	8336	6704
4480	8624	6832
4608	7872	5920
4736	7472	5504
4864	8032	6096
4992	8432	6640
5120	8208	6448
5248	6896	5264
5376	7168	5472
5504	7056	5424
5632	7328	5520
5760	6944	5056
5888	7328	5184
6016	7328	5648
6144	6416	4608
6272	6720	4832
6400	6800	4912
6528	5648	4112
6656	6096	4384
6784	6128	4208
6912	5920	4064
7040	6272	4384
7168	5680	4032
7296	5824	4064
7424	5488	3824
7552	5888	4320
7680	5632	3808
7808	6352	4416
7936	5504	3712
8064	5344	3872
8192	10976	7152
8448	10528	7280
8704	10768	7520
8960	10864	7728
9216	10960	7648
9472	10976	7952
9728	10944	7984
9984	11168	8000
10240	11200	8064
10496	11008	7744
10752	10832	7728
11008	11856	8832
11264	12560	9040
11520	13088	9312
11776	11792	8544
12032	12656	9472
12288	11696	8464
12544	12368	9296
12800	13840	10496
13056	12144	9072
13312	12944	9584
13568	12560	9600
13824	12752	9840
14080	13360	10208
14336	13264	9904
14592	13440	10384
14848	13200	10208
15104	14768	11696
15360	14592	11184
15616	14208	11264
15872	14608	11456
16128	14224	11392
16384	28416	22288
16896	29376	23280
17408	32080	25728
17920	33568	26752
18432	31728	25296
18944	32912	26480
19456	33552	27280
19968	34608	28208
20480	36496	29680
20992	36064	29648
21504	36320	29632
22016	38960	31904
22528	40512	33504
23040	40608	34192
23552	42768	35616
24064	43232	36384
24576	45312	38560
25088	45792	38896
25600	46864	39760
26112	47520	40272
26624	46848	40144
27136	47232	40560
27648	49024	42208
28160	49312	43024
28672	51856	45216
29184	50224	43232
29696	53216	46640
30208	52272	45840
30720	53344	46528
31232	54528	47744
31744	54864	48064
32256	56496	49408
32768	113920	100672
33792	119360	105584
34816	117088	104384
35840	122144	108272
36864	124416	110976
37888	125296	112000
38912	126448	114128
39936	130272	115648
40960	129920	116448
41984	127696	114448
43008	128208	114912
44032	127360	115488
45056	128464	115728
46080	127936	115952
47104	127040	114896
48128	123808	112256
49152	119616	107840
50176	120592	109504
51200	120592	108976
52224	122176	110672
53248	119952	108416
54272	114944	103952
55296	117824	107216
56320	114112	103312
57344	111664	100560
58368	108256	97872
59392	110256	99808
60416	105264	94864
61440	100912	90752
62464	100080	90624
63488	97216	87968
64512	94432	85376
65536	180576	162768
67584	174576	157232
69632	161312	143856
71680	147856	131264
73728	137216	121184
75776	128256	113376
77824	113488	99728
79872	102528	88400
81920	93984	80320
83968	86752	74720
86016	80672	67904
88064	72432	61216
90112	67424	56624
92160	61136	51728
94208	55184	45360
96256	47648	38752
98304	44144	36112
100352	39216	31744
102400	33984	27184
104448	31520	25408
106496	29744	24128
108544	25840	20896
110592	22320	17600
112640	21872	17200
114688	20096	16192
116736	18544	14976
118784	17088	13952
120832	15376	13008
122880	14704	12048
124928	13376	11104
126976	12496	10688
129024	11856	10048
131072	20880	18304
135168	18544	16848
139264	17232	15744
143360	14064	13088
147456	11888	11088
151552	10256	9840
155648	9024	8656
159744	8160	7952
163840	7632	7520
167936	6496	6368
172032	5040	4912
176128	4800	4736
180224	3456	3424
184320	3376	3376
188416	3296	3280
192512	2736	2736
196608	2864	2864
200704	2544	2544
204800	1856	1840
208896	2112	2112
212992	2240	2240
217088	2016	2016
221184	2080	2080
225280	1920	1920
229376	1936	1936
233472	1840	1840
237568	1840	1840
241664	1632	1632
245760	1600	1600
249856	1312	1312
253952	1360	1360
258048	1440	1440
262144	3280	3280
270336	2704	2704
278528	2656	2656
286720	2752	2752
294912	2480	2480
303104	2416	2416
311296	2128	2128
319488	2000	2000
327680	2032	2032
335872	2144	2144
344064	1872	1872
352256	1808	1808
360448	1600	1600
368640	1776	1776
376832	1616	1616
385024	1760	1760
393216	1504	1504
401408	1616	1616
409600	1600	1600
417792	1744	1744
425984	1536	1536
434176	1328	1328
442368	1488	1488
450560	1760	1760
458752	1248	1248
466944	1360	1360
475136	1168	1168
483328	1296	1296
491520	1456	1456
499712	1312	1312
507904	1296	1296
516096	1072	1072
524288	2416	2416
540672	2448	2448
557056	2400	2400
573440	2240	2240
589824	2688	2688
606208	2624	2624
622592	2080	2080
638976	2464	2464
655360	2144	2144
671744	2576	2576
688128	2368	2368
704512	2064	2064
720896	2160	2160
737280	2496	2496
753664	2016	2000
770048	2544	2544
786432	2240	2240
802816	2464	2464
819200	2944	2944
835584	5360	5344
851968	4432	4400
868352	3056	2976
884736	2656	2640
901120	2352	2336
917504	2128	2112
933888	2224	2208
950272	2080	2080
966656	2208	2192
983040	2080	2016
999424	2224	2192
1015808	1872	1872
1032192	1888	1888
1048576	3712	3712
1081344	4208	4176
1114112	4544	4448
1146880	4032	3984
1179648	3664	3648
1212416	3824	3808
1245184	3936	3920
1277952	3792	3760
1310720	3504	3488
1343488	3120	3120
1376256	3920	3904
1409024	3520	3504
1441792	3424	3392
1474560	3728	3648
1507328	6064	6000
1540096	12976	12880
1572864	11824	11504
1605632	9664	9328
1638400	6464	6304
1671168	14224	13888
1703936	15120	14704
1736704	23376	22944
1769472	24384	23856
1802240	20096	19488
1835008	9168	8512
1867776	3808	3504
1900544	6480	6064
1933312	4592	4144
1966080	3808	3472
1998848	3216	2976
2031616	2288	2112
2064384	2288	2256
2097152	4528	4304
2162688	3952	3744
2228224	4592	4480
2293760	7184	6816
2359296	3808	3600
2424832	4144	3904
2490368	3856	3504
2555904	5248	4896
2621440	5328	4080
2686976	4720	4000
2752512	4592	4320
2818048	4832	4656
2883584	3792	3712
2949120	3728	3648
3014656	2992	2864
3080192	3648	3504
3145728	3440	3104
3211264	3504	3376
3276800	3168	2912
3342336	3792	3424
3407872	2992	2736
3473408	3808	3376
3538944	3312	2912
3604480	3632	3152
3670016	3216	2800
3735552	3344	3168
3801088	4112	3680
3866624	4624	3488
3932160	4416	3488
3997696	4176	3392
4063232	3168	2960
4128768	3280	3104
4194304	6592	6144
4325376	7296	6880
4456448	8384	7840
4587520	9648	8672
4718592	7248	6720
4849664	7120	6464
4980736	9488	8480
5111808	11152	9776
5242880	13184	11776
5373952	9648	8928
5505024	10272	9376
5636096	12720	10016
5767168	13488	11200
5898240	18816	15616
6029312	39152	36352
6160384	33344	29232
6291456	27952	24560
6422528	16944	14160
6553600	14608	12416
6684672	17984	16128
6815744	24288	22048
6946816	44864	39312
7077888	35520	28032
7208960	38480	32512
7340032	44896	38992
7471104	47840	43120
7602176	53440	48640
7733248	31744	28160
7864320	27136	24032
7995392	24096	21008
8126464	14960	13792
8257536	28976	27504
8388608	84496	79216
8650752	71744	66720
8912896	55072	50528
9175040	54256	47808
9437184	49424	41152
9699328	68240	65392
9961472	85072	82048
10223616	26880	25312
10485760	29200	27472
10747904	55760	54064
11010048	131456	127792
11272192	81376	76944
11534336	42928	39280
11796480	89120	85056
12058624	99552	95712
12320768	84384	80160
12582912	38544	35312
12845056	24880	22224
13107200	31488	29152
13369344	74336	70368
13631488	87808	82832
13893632	81936	73504
14155776	60656	55344
14417920	66240	61072
14680064	60832	52656
14942208	57360	49648
15204352	52112	44512
15466496	41232	34416
15728640	38224	32224
15990784	48464	43184
16252928	62992	54656
16515072	51376	44624
16777216	155776	139872
17301504	198560	174480
17825792	122240	95584
18350080	90976	70576
18874368	44208	33312
19398656	58304	32064
19922944	33424	15472
20447232	15504	4992
20971520	1168	0
21495808	1248	0
22020096	1472	16
22544384	3072	0
23068672	2096	0
23592960	3808	0
24117248	3936	0
24641536	2240	0
25165824	1392	0
25690112	1264	0
26214400	1568	16
26738688	2704	0
27262976	3600	0
27787264	2016	16
28311552	2336	16
28835840	3008	0
29360128	2912	0
29884416	5344	0
30408704	5248	0
30932992	4096	0
31457280	1200	16
31981568	2688	32
32505856	512	0
33030144	880	0
33554432	1808	0
34603008	1456	32
35651584	7056	32
36700160	1392	0
37748736	9312	16
38797312	3344	0
39845888	2032	64
40894464	448	16
41943040	144	0
42991616	784	0
44040192	480	0
45088768	416	0
46137344	672	0
47185920	3616	0
48234496	9040	0
49283072	3648	0
50331648	336	0
51380224	384	0
52428800	688	0
53477376	5856	0
54525952	800	0
55574528	1968	0
56623104	128	0
57671680	224	0
58720256	160	0
59768832	400	0
60817408	656	0
61865984	720	0
62914560	800	0
63963136	336	0
65011712	1088	0
66060288	1232	0
67108864	560	0
69206016	864	0
71303168	2704	0
73400320	1008	0
75497472	32	0
77594624	1280	0
79691776	784	0
81788928	304	0
83886080	1104	0
85983232	848	0
88080384	416	0
90177536	3248	0
92274688	2368	0
94371840	544	0
96468992	1808	0
98566144	32	0
100663296	0	0
102760448	912	0
104857600	96	0
106954752	432	0
109051904	816	0
111149056	992	16
113246208	432	0
115343360	384	0
117440512	48	0
119537664	336	0
121634816	80	0
123731968	0	0
125829120	240	0
127926272	992	0
130023424	48	0
132120576	592	16
134217728	176	0
138412032	1824	0
142606336	1760	0
146800640	16	16
150994944	288	0
155189248	288	0
159383552	192	0
163577856	224	0
167772160	336	0
171966464	0	0
176160768	432	64
180355072	224	0
184549376	64	0
188743680	224	16
192937984	208	0
197132288	32	0
201326592	64	0
205520896	112	16
209715200	32	0
213909504	64	0
218103808	256	0
222298112	0	0
226492416	112	0
230686720	0	0
234881024	832	0
239075328	0	0
243269632	784	0
247463936	0	0
251658240	208	0
255852544	608	0
260046848	96	0
264241152	16	16
268435456	192	0
276824064	32	0
285212672	16	16
293601280	80	64
301989888	16	16
310378496	240	16
318767104	48	0
327155712	16	16
335544320	80	0
343932928	0	0
352321536	32	32
360710144	16	16
369098752	0	0
377487360	0	0
385875968	0	0
394264576	16	16
402653184	80	80
411041792	224	16
419430400	0	0
427819008	32	32
436207616	16	16
444596224	16	16
452984832	48	32
461373440	16	16
469762048	32	32
478150656	16	16
486539264	16	16
494927872	32	32
503316480	80	80
511705088	64	64
520093696	64	64
528482304	96	96
536870912	224	224
553648128	480	480
570425344	928	928
587202560	1120	1120
603979776	0	0
620756992	0	0
637534208	0	0
654311424	0	0
671088640	0	0
687865856	0	0
704643072	0	0
721420288	0	0
738197504	0	0
754974720	0	0
771751936	0	0
788529152	0	0
805306368	0	0
822083584	0	0
838860800	0	0
855638016	0	0
872415232	0	0
889192448	0	0
905969664	0	0
922746880	0	0
939524096	0	0
956301312	0	0
973078528	0	0
989855744	0	0
1006632960	0	0
1023410176	0	0
1040187392	0	0
1056964608	0	0
1073741824	0	0
1107296256	0	0
1140850688	0	0
1174405120	0	0
1207959552	0	0
1241513984	0	0
1275068416	0	0
1308622848	0	0
1342177280	0	0
1375731712	0	0
1409286144	0	0
1442840576	0	0
1476395008	0	0
1509949440	0	0
1543503872	0	0
1577058304	0	0
1610612736	0	0
1644167168	0	0
1677721600	0	0
1711276032	0	0
1744830464	0	0
1778384896	0	0
1811939328	0	0
1845493760	0	0
1879048192	0	0
1912602624	0	0
1946157056	0	0
1979711488	0	0
2013265920	0	0
2046820352	0	0
2080374784	0	0
2113929216	0	0
2147483648	0	0
2214592512	0	0
2281701376	0	0
2348810240	0	0
2415919104	0	0
2483027968	0	0
2550136832	0	0
2617245696	0	0
2684354560	0	0
2751463424	0	0
2818572288	0	0
2885681152	0	0
2952790016	0	0
3019898880	0	0
3087007744	0	0
3154116608	0	0
3221225472	0	0
3288334336	0	0
3355443200	0	0
3422552064	0	0
3489660928	0	0
3556769792	0	0
3623878656	0	0
3690987520	0	0
3758096384	0	0
3825205248	0	0
3892314112	0	0
3959422976	0	0
4026531840	0	0
4093640704	0	0
4160749568	0	0
4227858432	0	0
~~~~~~~~~~Reuse Distance Profiler output end~~~~~~~~~~

DRAM Statistics
 CHANNEL 0
 RQ ROW_BUFFER_HIT:     207385  ROW_BUFFER_MISS:    3014062
 DBUS AVG_CONGESTED_CYCLE:    3.62988
 WQ ROW_BUFFER_HIT:     223770  ROW_BUFFER_MISS:    1870823  FULL:          0


CPU 0 Branch Prediction Accuracy: 77.3366% MPKI: 29.5957 Average ROB Occupancy at Mispredict: 45.2775
Branch type MPKI
BRANCH_DIRECT_JUMP: 1.33333e-05
BRANCH_INDIRECT: 0
BRANCH_CONDITIONAL: 29.5957
BRANCH_DIRECT_CALL: 9.33333e-06
BRANCH_INDIRECT_CALL: 0
BRANCH_RETURN: 9.33333e-06

