
*** ChampSim Multicore Out-of-Order Simulator ***

Warmup Instructions: 500000000
Simulation Instructions: 1500000000
Number of CPUs: 1
Off-chip DRAM Size: 4 GiB Channels: 1 Width: 64-bit Data Rate: 3200 MT/s

VirtualMemory physical capacity: 8588881920 num_ppages: 2096895
VirtualMemory page size: 4096 log2_page_size: 12

CPU 0 runs traces/473.astar-359B.champsimtrace.xz
CPU 0 Bimodal branch predictor
Basic BTB sets: 1024 ways: 8 indirect buffer size: 4096 RAS size: 64
Initializing LRU.
Initializing LRU.
Initializing LRU.
Initializing LRU.
Initializing rdLRU.
Initializing LRU.
Initializing LRU.
Heartbeat CPU 0 instructions: 10000000 cycles: 3578142 heartbeat IPC: 2.79475 cumulative IPC: 2.79475 (Simulation time: 0 hr 0 min 57 sec) 
Heartbeat CPU 0 instructions: 20000004 cycles: 7205957 heartbeat IPC: 2.75648 cumulative IPC: 2.77548 (Simulation time: 0 hr 1 min 54 sec) 
Heartbeat CPU 0 instructions: 30000003 cycles: 10772276 heartbeat IPC: 2.80401 cumulative IPC: 2.78493 (Simulation time: 0 hr 2 min 49 sec) 
Heartbeat CPU 0 instructions: 40000001 cycles: 14344968 heartbeat IPC: 2.79901 cumulative IPC: 2.78843 (Simulation time: 0 hr 3 min 45 sec) 
Heartbeat CPU 0 instructions: 50000004 cycles: 17943383 heartbeat IPC: 2.779 cumulative IPC: 2.78654 (Simulation time: 0 hr 4 min 41 sec) 
Heartbeat CPU 0 instructions: 60000004 cycles: 21509531 heartbeat IPC: 2.80415 cumulative IPC: 2.78946 (Simulation time: 0 hr 5 min 36 sec) 
Heartbeat CPU 0 instructions: 70000000 cycles: 25072687 heartbeat IPC: 2.8065 cumulative IPC: 2.79188 (Simulation time: 0 hr 6 min 31 sec) 
Heartbeat CPU 0 instructions: 80000002 cycles: 28651712 heartbeat IPC: 2.79406 cumulative IPC: 2.79215 (Simulation time: 0 hr 7 min 25 sec) 
Heartbeat CPU 0 instructions: 90000004 cycles: 32221825 heartbeat IPC: 2.80103 cumulative IPC: 2.79314 (Simulation time: 0 hr 8 min 20 sec) 
Heartbeat CPU 0 instructions: 100000000 cycles: 35826032 heartbeat IPC: 2.77453 cumulative IPC: 2.79127 (Simulation time: 0 hr 9 min 15 sec) 
Heartbeat CPU 0 instructions: 110000003 cycles: 39458163 heartbeat IPC: 2.75321 cumulative IPC: 2.78776 (Simulation time: 0 hr 10 min 23 sec) 
Heartbeat CPU 0 instructions: 120000003 cycles: 43069624 heartbeat IPC: 2.76896 cumulative IPC: 2.78619 (Simulation time: 0 hr 11 min 21 sec) 
Heartbeat CPU 0 instructions: 130000001 cycles: 46709760 heartbeat IPC: 2.74715 cumulative IPC: 2.78314 (Simulation time: 0 hr 12 min 20 sec) 
Heartbeat CPU 0 instructions: 140000004 cycles: 50279309 heartbeat IPC: 2.80148 cumulative IPC: 2.78445 (Simulation time: 0 hr 13 min 16 sec) 
Heartbeat CPU 0 instructions: 150000001 cycles: 53845180 heartbeat IPC: 2.80436 cumulative IPC: 2.78576 (Simulation time: 0 hr 14 min 13 sec) 
Heartbeat CPU 0 instructions: 160000000 cycles: 57476312 heartbeat IPC: 2.75396 cumulative IPC: 2.78376 (Simulation time: 0 hr 15 min 11 sec) 
Heartbeat CPU 0 instructions: 170000000 cycles: 61068316 heartbeat IPC: 2.78396 cumulative IPC: 2.78377 (Simulation time: 0 hr 16 min 10 sec) 
Heartbeat CPU 0 instructions: 180000004 cycles: 64649466 heartbeat IPC: 2.7924 cumulative IPC: 2.78425 (Simulation time: 0 hr 17 min 14 sec) 
Heartbeat CPU 0 instructions: 190000002 cycles: 68193122 heartbeat IPC: 2.82194 cumulative IPC: 2.7862 (Simulation time: 0 hr 18 min 32 sec) 
Heartbeat CPU 0 instructions: 200000004 cycles: 71830483 heartbeat IPC: 2.74925 cumulative IPC: 2.78433 (Simulation time: 0 hr 19 min 29 sec) 
Heartbeat CPU 0 instructions: 210000002 cycles: 75433579 heartbeat IPC: 2.77539 cumulative IPC: 2.78391 (Simulation time: 0 hr 20 min 27 sec) 
Heartbeat CPU 0 instructions: 220000001 cycles: 79070398 heartbeat IPC: 2.74966 cumulative IPC: 2.78233 (Simulation time: 0 hr 22 min 2 sec) 
Heartbeat CPU 0 instructions: 230000001 cycles: 82638664 heartbeat IPC: 2.80248 cumulative IPC: 2.7832 (Simulation time: 0 hr 23 min 39 sec) 
Heartbeat CPU 0 instructions: 240000003 cycles: 86207786 heartbeat IPC: 2.80181 cumulative IPC: 2.78397 (Simulation time: 0 hr 24 min 32 sec) 
Heartbeat CPU 0 instructions: 250000000 cycles: 89811593 heartbeat IPC: 2.77484 cumulative IPC: 2.78361 (Simulation time: 0 hr 25 min 43 sec) 
Heartbeat CPU 0 instructions: 260000004 cycles: 93416999 heartbeat IPC: 2.77361 cumulative IPC: 2.78322 (Simulation time: 0 hr 26 min 37 sec) 
Heartbeat CPU 0 instructions: 270000004 cycles: 97055160 heartbeat IPC: 2.74864 cumulative IPC: 2.78192 (Simulation time: 0 hr 27 min 45 sec) 
Heartbeat CPU 0 instructions: 280000001 cycles: 100622715 heartbeat IPC: 2.80304 cumulative IPC: 2.78267 (Simulation time: 0 hr 29 min 0 sec) 
Heartbeat CPU 0 instructions: 290000004 cycles: 104261962 heartbeat IPC: 2.74782 cumulative IPC: 2.78146 (Simulation time: 0 hr 29 min 59 sec) 
Heartbeat CPU 0 instructions: 300000003 cycles: 107830010 heartbeat IPC: 2.80265 cumulative IPC: 2.78216 (Simulation time: 0 hr 30 min 55 sec) 
Heartbeat CPU 0 instructions: 310000000 cycles: 111432828 heartbeat IPC: 2.7756 cumulative IPC: 2.78194 (Simulation time: 0 hr 31 min 51 sec) 
Heartbeat CPU 0 instructions: 320000001 cycles: 115020997 heartbeat IPC: 2.78694 cumulative IPC: 2.7821 (Simulation time: 0 hr 32 min 47 sec) 
Heartbeat CPU 0 instructions: 330000001 cycles: 118607288 heartbeat IPC: 2.7884 cumulative IPC: 2.78229 (Simulation time: 0 hr 33 min 42 sec) 
Heartbeat CPU 0 instructions: 340000001 cycles: 122175352 heartbeat IPC: 2.80264 cumulative IPC: 2.78289 (Simulation time: 0 hr 34 min 37 sec) 
Heartbeat CPU 0 instructions: 350000003 cycles: 125814805 heartbeat IPC: 2.74767 cumulative IPC: 2.78187 (Simulation time: 0 hr 35 min 33 sec) 
Heartbeat CPU 0 instructions: 360000003 cycles: 129417689 heartbeat IPC: 2.77555 cumulative IPC: 2.78169 (Simulation time: 0 hr 36 min 38 sec) 
Heartbeat CPU 0 instructions: 370000000 cycles: 132986220 heartbeat IPC: 2.80227 cumulative IPC: 2.78224 (Simulation time: 0 hr 37 min 50 sec) 
Heartbeat CPU 0 instructions: 380000002 cycles: 136554270 heartbeat IPC: 2.80265 cumulative IPC: 2.78278 (Simulation time: 0 hr 38 min 59 sec) 
Heartbeat CPU 0 instructions: 390000003 cycles: 140192611 heartbeat IPC: 2.74851 cumulative IPC: 2.78189 (Simulation time: 0 hr 39 min 54 sec) 
Heartbeat CPU 0 instructions: 400000000 cycles: 143761105 heartbeat IPC: 2.8023 cumulative IPC: 2.78239 (Simulation time: 0 hr 40 min 46 sec) 
Heartbeat CPU 0 instructions: 410000000 cycles: 147364451 heartbeat IPC: 2.7752 cumulative IPC: 2.78222 (Simulation time: 0 hr 41 min 40 sec) 
Heartbeat CPU 0 instructions: 420000004 cycles: 150967836 heartbeat IPC: 2.77517 cumulative IPC: 2.78205 (Simulation time: 0 hr 42 min 33 sec) 
Heartbeat CPU 0 instructions: 430000001 cycles: 154502490 heartbeat IPC: 2.82913 cumulative IPC: 2.78313 (Simulation time: 0 hr 43 min 25 sec) 
Heartbeat CPU 0 instructions: 440000001 cycles: 158071266 heartbeat IPC: 2.80208 cumulative IPC: 2.78355 (Simulation time: 0 hr 44 min 18 sec) 
Heartbeat CPU 0 instructions: 450000001 cycles: 161708804 heartbeat IPC: 2.74911 cumulative IPC: 2.78278 (Simulation time: 0 hr 45 min 12 sec) 
Heartbeat CPU 0 instructions: 460000003 cycles: 165348660 heartbeat IPC: 2.74736 cumulative IPC: 2.782 (Simulation time: 0 hr 46 min 6 sec) 
Heartbeat CPU 0 instructions: 470000002 cycles: 168954092 heartbeat IPC: 2.77359 cumulative IPC: 2.78182 (Simulation time: 0 hr 47 min 15 sec) 
Heartbeat CPU 0 instructions: 480000001 cycles: 172523079 heartbeat IPC: 2.80192 cumulative IPC: 2.78224 (Simulation time: 0 hr 48 min 41 sec) 
Heartbeat CPU 0 instructions: 490000003 cycles: 176091669 heartbeat IPC: 2.80223 cumulative IPC: 2.78264 (Simulation time: 0 hr 50 min 13 sec) 
Heartbeat CPU 0 instructions: 500000002 cycles: 179698167 heartbeat IPC: 2.77277 cumulative IPC: 2.78244 (Simulation time: 0 hr 51 min 33 sec) 

Warmup complete CPU 0 instructions: 500000002 cycles: 179698167 (Simulation time: 0 hr 51 min 33 sec) 

Heartbeat CPU 0 instructions: 510000000 cycles: 243307774 heartbeat IPC: 0.157209 cumulative IPC: 0.157209 (Simulation time: 0 hr 56 min 3 sec) 
Heartbeat CPU 0 instructions: 520000000 cycles: 306866053 heartbeat IPC: 0.157336 cumulative IPC: 0.157272 (Simulation time: 1 hr 0 min 25 sec) 
Heartbeat CPU 0 instructions: 530000001 cycles: 366260201 heartbeat IPC: 0.168367 cumulative IPC: 0.160804 (Simulation time: 1 hr 5 min 15 sec) 
Heartbeat CPU 0 instructions: 540000003 cycles: 437235681 heartbeat IPC: 0.140894 cumulative IPC: 0.155317 (Simulation time: 1 hr 12 min 17 sec) 
Heartbeat CPU 0 instructions: 550000000 cycles: 497000963 heartbeat IPC: 0.167321 cumulative IPC: 0.157578 (Simulation time: 1 hr 15 min 56 sec) 
Heartbeat CPU 0 instructions: 560000000 cycles: 556615298 heartbeat IPC: 0.167745 cumulative IPC: 0.159186 (Simulation time: 1 hr 19 min 29 sec) 
Heartbeat CPU 0 instructions: 570000000 cycles: 632125905 heartbeat IPC: 0.132432 cumulative IPC: 0.154721 (Simulation time: 1 hr 26 min 19 sec) 
Heartbeat CPU 0 instructions: 580000002 cycles: 691825340 heartbeat IPC: 0.167506 cumulative IPC: 0.156211 (Simulation time: 1 hr 30 min 36 sec) 
Heartbeat CPU 0 instructions: 590000000 cycles: 754808919 heartbeat IPC: 0.158772 cumulative IPC: 0.156492 (Simulation time: 1 hr 35 min 26 sec) 
Heartbeat CPU 0 instructions: 600000000 cycles: 815323593 heartbeat IPC: 0.165249 cumulative IPC: 0.157325 (Simulation time: 1 hr 38 min 17 sec) 
Heartbeat CPU 0 instructions: 610000000 cycles: 875148546 heartbeat IPC: 0.167154 cumulative IPC: 0.158171 (Simulation time: 1 hr 41 min 6 sec) 
Heartbeat CPU 0 instructions: 620000002 cycles: 944260545 heartbeat IPC: 0.144693 cumulative IPC: 0.156953 (Simulation time: 1 hr 46 min 51 sec) 
Heartbeat CPU 0 instructions: 630000001 cycles: 1005327471 heartbeat IPC: 0.163755 cumulative IPC: 0.157456 (Simulation time: 1 hr 49 min 49 sec) 
Heartbeat CPU 0 instructions: 640000000 cycles: 1065264342 heartbeat IPC: 0.166842 cumulative IPC: 0.158091 (Simulation time: 1 hr 54 min 14 sec) 
Heartbeat CPU 0 instructions: 650000001 cycles: 1126182361 heartbeat IPC: 0.164155 cumulative IPC: 0.158481 (Simulation time: 1 hr 57 min 13 sec) 
Heartbeat CPU 0 instructions: 660000004 cycles: 1194710638 heartbeat IPC: 0.145925 cumulative IPC: 0.157634 (Simulation time: 2 hr 1 min 35 sec) 
Heartbeat CPU 0 instructions: 670000002 cycles: 1262497259 heartbeat IPC: 0.147522 cumulative IPC: 0.157 (Simulation time: 2 hr 5 min 56 sec) 
Heartbeat CPU 0 instructions: 680000000 cycles: 1325592669 heartbeat IPC: 0.15849 cumulative IPC: 0.157083 (Simulation time: 2 hr 10 min 35 sec) 
Heartbeat CPU 0 instructions: 690000001 cycles: 1389647278 heartbeat IPC: 0.156117 cumulative IPC: 0.157031 (Simulation time: 2 hr 14 min 0 sec) 
Heartbeat CPU 0 instructions: 700000004 cycles: 1450101035 heartbeat IPC: 0.165416 cumulative IPC: 0.15743 (Simulation time: 2 hr 17 min 24 sec) 
Heartbeat CPU 0 instructions: 710000003 cycles: 1512207831 heartbeat IPC: 0.161013 cumulative IPC: 0.157597 (Simulation time: 2 hr 20 min 35 sec) 
Heartbeat CPU 0 instructions: 720000000 cycles: 1576181587 heartbeat IPC: 0.156314 cumulative IPC: 0.157539 (Simulation time: 2 hr 24 min 0 sec) 
Heartbeat CPU 0 instructions: 730000004 cycles: 1635996620 heartbeat IPC: 0.167182 cumulative IPC: 0.157935 (Simulation time: 2 hr 26 min 58 sec) 
Heartbeat CPU 0 instructions: 740000000 cycles: 1699348898 heartbeat IPC: 0.157847 cumulative IPC: 0.157931 (Simulation time: 2 hr 30 min 23 sec) 
Heartbeat CPU 0 instructions: 750000002 cycles: 1759471551 heartbeat IPC: 0.166327 cumulative IPC: 0.158251 (Simulation time: 2 hr 33 min 6 sec) 
Heartbeat CPU 0 instructions: 760000000 cycles: 1826957172 heartbeat IPC: 0.14818 cumulative IPC: 0.157838 (Simulation time: 2 hr 37 min 5 sec) 
Heartbeat CPU 0 instructions: 770000004 cycles: 1883268809 heartbeat IPC: 0.177583 cumulative IPC: 0.158491 (Simulation time: 2 hr 39 min 12 sec) 
Heartbeat CPU 0 instructions: 780000001 cycles: 1947445183 heartbeat IPC: 0.155821 cumulative IPC: 0.158394 (Simulation time: 2 hr 43 min 35 sec) 
Heartbeat CPU 0 instructions: 790000000 cycles: 2010463394 heartbeat IPC: 0.158684 cumulative IPC: 0.158404 (Simulation time: 2 hr 47 min 9 sec) 
Heartbeat CPU 0 instructions: 800000001 cycles: 2067127155 heartbeat IPC: 0.17648 cumulative IPC: 0.158946 (Simulation time: 2 hr 49 min 35 sec) 
Heartbeat CPU 0 instructions: 810000000 cycles: 2129676088 heartbeat IPC: 0.159875 cumulative IPC: 0.158976 (Simulation time: 2 hr 52 min 55 sec) 
Heartbeat CPU 0 instructions: 820000001 cycles: 2192775207 heartbeat IPC: 0.158481 cumulative IPC: 0.158961 (Simulation time: 2 hr 56 min 34 sec) 
Heartbeat CPU 0 instructions: 830000000 cycles: 2251755486 heartbeat IPC: 0.169548 cumulative IPC: 0.159262 (Simulation time: 2 hr 59 min 27 sec) 
Heartbeat CPU 0 instructions: 840000002 cycles: 2314608062 heartbeat IPC: 0.159102 cumulative IPC: 0.159257 (Simulation time: 3 hr 2 min 45 sec) 
Heartbeat CPU 0 instructions: 850000004 cycles: 2374087716 heartbeat IPC: 0.168125 cumulative IPC: 0.159498 (Simulation time: 3 hr 5 min 28 sec) 
Heartbeat CPU 0 instructions: 860000002 cycles: 2433765023 heartbeat IPC: 0.167568 cumulative IPC: 0.159711 (Simulation time: 3 hr 8 min 9 sec) 
Heartbeat CPU 0 instructions: 870000001 cycles: 2493491461 heartbeat IPC: 0.16743 cumulative IPC: 0.159911 (Simulation time: 3 hr 10 min 51 sec) 
Heartbeat CPU 0 instructions: 880000003 cycles: 2564112902 heartbeat IPC: 0.1416 cumulative IPC: 0.159368 (Simulation time: 3 hr 15 min 32 sec) 
Heartbeat CPU 0 instructions: 890000000 cycles: 2623624727 heartbeat IPC: 0.168034 cumulative IPC: 0.159579 (Simulation time: 3 hr 18 min 15 sec) 
Heartbeat CPU 0 instructions: 900000004 cycles: 2696939203 heartbeat IPC: 0.136399 cumulative IPC: 0.158904 (Simulation time: 3 hr 23 min 20 sec) 
Heartbeat CPU 0 instructions: 910000000 cycles: 2757729102 heartbeat IPC: 0.164501 cumulative IPC: 0.159036 (Simulation time: 3 hr 26 min 12 sec) 
Heartbeat CPU 0 instructions: 920000001 cycles: 2825361023 heartbeat IPC: 0.147859 cumulative IPC: 0.15875 (Simulation time: 3 hr 30 min 14 sec) 
Heartbeat CPU 0 instructions: 930000002 cycles: 2885193408 heartbeat IPC: 0.167134 cumulative IPC: 0.158936 (Simulation time: 3 hr 33 min 3 sec) 
Heartbeat CPU 0 instructions: 940000000 cycles: 2951370129 heartbeat IPC: 0.151111 cumulative IPC: 0.158749 (Simulation time: 3 hr 37 min 1 sec) 
Heartbeat CPU 0 instructions: 950000001 cycles: 3011256079 heartbeat IPC: 0.166984 cumulative IPC: 0.158923 (Simulation time: 3 hr 39 min 44 sec) 
Heartbeat CPU 0 instructions: 960000001 cycles: 3078124658 heartbeat IPC: 0.149547 cumulative IPC: 0.158707 (Simulation time: 3 hr 43 min 44 sec) 
Heartbeat CPU 0 instructions: 970000000 cycles: 3137674146 heartbeat IPC: 0.167928 cumulative IPC: 0.158892 (Simulation time: 3 hr 46 min 30 sec) 
Heartbeat CPU 0 instructions: 980000000 cycles: 3201538278 heartbeat IPC: 0.156582 cumulative IPC: 0.158844 (Simulation time: 3 hr 49 min 55 sec) 
Heartbeat CPU 0 instructions: 990000002 cycles: 3264413604 heartbeat IPC: 0.159045 cumulative IPC: 0.158848 (Simulation time: 3 hr 53 min 13 sec) 
Heartbeat CPU 0 instructions: 1000000001 cycles: 3323540759 heartbeat IPC: 0.169127 cumulative IPC: 0.159041 (Simulation time: 3 hr 55 min 55 sec) 
Heartbeat CPU 0 instructions: 1010000000 cycles: 3387126138 heartbeat IPC: 0.157269 cumulative IPC: 0.159006 (Simulation time: 3 hr 59 min 16 sec) 
Heartbeat CPU 0 instructions: 1020000000 cycles: 3446764081 heartbeat IPC: 0.167678 cumulative IPC: 0.159164 (Simulation time: 4 hr 1 min 59 sec) 
Heartbeat CPU 0 instructions: 1030000001 cycles: 3506743706 heartbeat IPC: 0.166723 cumulative IPC: 0.1593 (Simulation time: 4 hr 4 min 43 sec) 
Heartbeat CPU 0 instructions: 1040000003 cycles: 3572977262 heartbeat IPC: 0.150981 cumulative IPC: 0.159138 (Simulation time: 4 hr 8 min 39 sec) 
Heartbeat CPU 0 instructions: 1050000000 cycles: 3633445560 heartbeat IPC: 0.165376 cumulative IPC: 0.159247 (Simulation time: 4 hr 11 min 25 sec) 
Heartbeat CPU 0 instructions: 1060000000 cycles: 3699748198 heartbeat IPC: 0.150824 cumulative IPC: 0.159089 (Simulation time: 4 hr 15 min 19 sec) 
Heartbeat CPU 0 instructions: 1070000002 cycles: 3759438495 heartbeat IPC: 0.167531 cumulative IPC: 0.159229 (Simulation time: 4 hr 18 min 0 sec) 
Heartbeat CPU 0 instructions: 1080000000 cycles: 3822924765 heartbeat IPC: 0.157514 cumulative IPC: 0.1592 (Simulation time: 4 hr 21 min 21 sec) 
Heartbeat CPU 0 instructions: 1090000000 cycles: 3886619555 heartbeat IPC: 0.156999 cumulative IPC: 0.159162 (Simulation time: 4 hr 24 min 44 sec) 
Heartbeat CPU 0 instructions: 1100000001 cycles: 3953779421 heartbeat IPC: 0.148898 cumulative IPC: 0.158979 (Simulation time: 4 hr 28 min 47 sec) 
Heartbeat CPU 0 instructions: 1110000000 cycles: 4012920886 heartbeat IPC: 0.169086 cumulative IPC: 0.159135 (Simulation time: 4 hr 31 min 29 sec) 
Heartbeat CPU 0 instructions: 1120000003 cycles: 4073410774 heartbeat IPC: 0.165317 cumulative IPC: 0.159231 (Simulation time: 4 hr 34 min 23 sec) 
Heartbeat CPU 0 instructions: 1130000001 cycles: 4135206502 heartbeat IPC: 0.161823 cumulative IPC: 0.159272 (Simulation time: 4 hr 37 min 26 sec) 
Heartbeat CPU 0 instructions: 1140000000 cycles: 4202408085 heartbeat IPC: 0.148806 cumulative IPC: 0.159097 (Simulation time: 4 hr 41 min 27 sec) 
Heartbeat CPU 0 instructions: 1150000000 cycles: 4262483688 heartbeat IPC: 0.166457 cumulative IPC: 0.159205 (Simulation time: 4 hr 44 min 14 sec) 
Heartbeat CPU 0 instructions: 1160000001 cycles: 4325691682 heartbeat IPC: 0.158208 cumulative IPC: 0.15919 (Simulation time: 4 hr 47 min 33 sec) 
Heartbeat CPU 0 instructions: 1170000004 cycles: 4383676427 heartbeat IPC: 0.172459 cumulative IPC: 0.159373 (Simulation time: 4 hr 49 min 57 sec) 
Heartbeat CPU 0 instructions: 1180000000 cycles: 4445081995 heartbeat IPC: 0.162852 cumulative IPC: 0.159423 (Simulation time: 4 hr 52 min 58 sec) 
Heartbeat CPU 0 instructions: 1190000000 cycles: 4508301844 heartbeat IPC: 0.158178 cumulative IPC: 0.159405 (Simulation time: 4 hr 56 min 16 sec) 
Heartbeat CPU 0 instructions: 1200000001 cycles: 4568250092 heartbeat IPC: 0.166811 cumulative IPC: 0.159506 (Simulation time: 4 hr 58 min 59 sec) 
Heartbeat CPU 0 instructions: 1210000001 cycles: 4631127529 heartbeat IPC: 0.15904 cumulative IPC: 0.159499 (Simulation time: 5 hr 2 min 17 sec) 
Heartbeat CPU 0 instructions: 1220000001 cycles: 4690999889 heartbeat IPC: 0.167022 cumulative IPC: 0.159599 (Simulation time: 5 hr 4 min 59 sec) 
Heartbeat CPU 0 instructions: 1230000001 cycles: 4755292029 heartbeat IPC: 0.15554 cumulative IPC: 0.159542 (Simulation time: 5 hr 8 min 24 sec) 
Heartbeat CPU 0 instructions: 1240000001 cycles: 4814652301 heartbeat IPC: 0.168463 cumulative IPC: 0.159656 (Simulation time: 5 hr 11 min 7 sec) 
Heartbeat CPU 0 instructions: 1250000001 cycles: 4874578932 heartbeat IPC: 0.166871 cumulative IPC: 0.159748 (Simulation time: 5 hr 13 min 51 sec) 
Heartbeat CPU 0 instructions: 1260000001 cycles: 4937341409 heartbeat IPC: 0.159331 cumulative IPC: 0.159743 (Simulation time: 5 hr 17 min 8 sec) 
Heartbeat CPU 0 instructions: 1270000000 cycles: 5004495388 heartbeat IPC: 0.148911 cumulative IPC: 0.159592 (Simulation time: 5 hr 21 min 9 sec) 
Heartbeat CPU 0 instructions: 1280000002 cycles: 5063845868 heartbeat IPC: 0.168491 cumulative IPC: 0.1597 (Simulation time: 5 hr 23 min 52 sec) 
Heartbeat CPU 0 instructions: 1290000000 cycles: 5123906296 heartbeat IPC: 0.166499 cumulative IPC: 0.159783 (Simulation time: 5 hr 26 min 34 sec) 
Heartbeat CPU 0 instructions: 1300000001 cycles: 5188064304 heartbeat IPC: 0.155865 cumulative IPC: 0.159733 (Simulation time: 5 hr 29 min 58 sec) 
Heartbeat CPU 0 instructions: 1310000000 cycles: 5254682287 heartbeat IPC: 0.15011 cumulative IPC: 0.159606 (Simulation time: 5 hr 33 min 55 sec) 
Heartbeat CPU 0 instructions: 1320000003 cycles: 5321586424 heartbeat IPC: 0.149468 cumulative IPC: 0.159474 (Simulation time: 5 hr 37 min 58 sec) 
Heartbeat CPU 0 instructions: 1330000002 cycles: 5385404285 heartbeat IPC: 0.156696 cumulative IPC: 0.15944 (Simulation time: 5 hr 41 min 22 sec) 
Heartbeat CPU 0 instructions: 1340000003 cycles: 5449381024 heartbeat IPC: 0.156307 cumulative IPC: 0.159402 (Simulation time: 5 hr 44 min 48 sec) 
Heartbeat CPU 0 instructions: 1350000000 cycles: 5517523609 heartbeat IPC: 0.146751 cumulative IPC: 0.159241 (Simulation time: 5 hr 48 min 54 sec) 
Heartbeat CPU 0 instructions: 1360000001 cycles: 5584675826 heartbeat IPC: 0.148915 cumulative IPC: 0.159113 (Simulation time: 5 hr 52 min 56 sec) 
Heartbeat CPU 0 instructions: 1370000000 cycles: 5648621317 heartbeat IPC: 0.156383 cumulative IPC: 0.159081 (Simulation time: 5 hr 56 min 18 sec) 
Heartbeat CPU 0 instructions: 1380000001 cycles: 5716393868 heartbeat IPC: 0.147552 cumulative IPC: 0.15894 (Simulation time: 6 hr 0 min 23 sec) 
Heartbeat CPU 0 instructions: 1390000003 cycles: 5783055047 heartbeat IPC: 0.150012 cumulative IPC: 0.158833 (Simulation time: 6 hr 4 min 21 sec) 
Heartbeat CPU 0 instructions: 1400000001 cycles: 5842741928 heartbeat IPC: 0.167541 cumulative IPC: 0.158925 (Simulation time: 6 hr 7 min 4 sec) 
Heartbeat CPU 0 instructions: 1410000001 cycles: 5904726323 heartbeat IPC: 0.161331 cumulative IPC: 0.158951 (Simulation time: 6 hr 10 min 11 sec) 
Heartbeat CPU 0 instructions: 1420000000 cycles: 5969727164 heartbeat IPC: 0.153844 cumulative IPC: 0.158894 (Simulation time: 6 hr 13 min 47 sec) 
Heartbeat CPU 0 instructions: 1430000001 cycles: 6029038167 heartbeat IPC: 0.168603 cumulative IPC: 0.158992 (Simulation time: 6 hr 16 min 30 sec) 
Heartbeat CPU 0 instructions: 1440000003 cycles: 6091884356 heartbeat IPC: 0.159119 cumulative IPC: 0.158994 (Simulation time: 6 hr 19 min 48 sec) 
Heartbeat CPU 0 instructions: 1450000001 cycles: 6151348021 heartbeat IPC: 0.16817 cumulative IPC: 0.159085 (Simulation time: 6 hr 22 min 31 sec) 
Heartbeat CPU 0 instructions: 1460000000 cycles: 6211523822 heartbeat IPC: 0.16618 cumulative IPC: 0.159156 (Simulation time: 6 hr 25 min 18 sec) 
Heartbeat CPU 0 instructions: 1470000004 cycles: 6278071060 heartbeat IPC: 0.150269 cumulative IPC: 0.159059 (Simulation time: 6 hr 29 min 13 sec) 
Heartbeat CPU 0 instructions: 1480000004 cycles: 6339922938 heartbeat IPC: 0.161677 cumulative IPC: 0.159085 (Simulation time: 6 hr 32 min 26 sec) 
Heartbeat CPU 0 instructions: 1490000000 cycles: 6403782931 heartbeat IPC: 0.156593 cumulative IPC: 0.15906 (Simulation time: 6 hr 35 min 54 sec) 
Heartbeat CPU 0 instructions: 1500000000 cycles: 6463677790 heartbeat IPC: 0.166959 cumulative IPC: 0.159135 (Simulation time: 6 hr 38 min 38 sec) 
Heartbeat CPU 0 instructions: 1510000001 cycles: 6522833038 heartbeat IPC: 0.169047 cumulative IPC: 0.159227 (Simulation time: 6 hr 41 min 20 sec) 
Heartbeat CPU 0 instructions: 1520000002 cycles: 6582674449 heartbeat IPC: 0.167108 cumulative IPC: 0.159301 (Simulation time: 6 hr 44 min 4 sec) 
Heartbeat CPU 0 instructions: 1530000003 cycles: 6644338274 heartbeat IPC: 0.16217 cumulative IPC: 0.159328 (Simulation time: 6 hr 47 min 7 sec) 
Heartbeat CPU 0 instructions: 1540000001 cycles: 6705509706 heartbeat IPC: 0.163475 cumulative IPC: 0.159367 (Simulation time: 6 hr 50 min 3 sec) 
Heartbeat CPU 0 instructions: 1550000000 cycles: 6775536002 heartbeat IPC: 0.142803 cumulative IPC: 0.159191 (Simulation time: 6 hr 54 min 38 sec) 
Heartbeat CPU 0 instructions: 1560000002 cycles: 6838375738 heartbeat IPC: 0.159135 cumulative IPC: 0.159191 (Simulation time: 6 hr 57 min 57 sec) 
Heartbeat CPU 0 instructions: 1570000004 cycles: 6899327177 heartbeat IPC: 0.164065 cumulative IPC: 0.159235 (Simulation time: 7 hr 0 min 54 sec) 
Heartbeat CPU 0 instructions: 1580000001 cycles: 6961483130 heartbeat IPC: 0.160886 cumulative IPC: 0.15925 (Simulation time: 7 hr 4 min 3 sec) 
Heartbeat CPU 0 instructions: 1590000001 cycles: 7024451926 heartbeat IPC: 0.158809 cumulative IPC: 0.159246 (Simulation time: 7 hr 7 min 21 sec) 
Heartbeat CPU 0 instructions: 1600000002 cycles: 7084585166 heartbeat IPC: 0.166297 cumulative IPC: 0.159307 (Simulation time: 7 hr 10 min 8 sec) 
Heartbeat CPU 0 instructions: 1610000003 cycles: 7147061052 heartbeat IPC: 0.160062 cumulative IPC: 0.159314 (Simulation time: 7 hr 13 min 24 sec) 
Heartbeat CPU 0 instructions: 1620000000 cycles: 7206696710 heartbeat IPC: 0.167685 cumulative IPC: 0.159385 (Simulation time: 7 hr 16 min 8 sec) 
Heartbeat CPU 0 instructions: 1630000000 cycles: 7270016270 heartbeat IPC: 0.157929 cumulative IPC: 0.159372 (Simulation time: 7 hr 19 min 31 sec) 
Heartbeat CPU 0 instructions: 1640000002 cycles: 7334000742 heartbeat IPC: 0.156288 cumulative IPC: 0.159345 (Simulation time: 7 hr 22 min 57 sec) 
Heartbeat CPU 0 instructions: 1650000000 cycles: 7393388951 heartbeat IPC: 0.168384 cumulative IPC: 0.159419 (Simulation time: 7 hr 25 min 39 sec) 
Heartbeat CPU 0 instructions: 1660000002 cycles: 7456777016 heartbeat IPC: 0.157758 cumulative IPC: 0.159405 (Simulation time: 7 hr 28 min 59 sec) 
Heartbeat CPU 0 instructions: 1670000004 cycles: 7520213989 heartbeat IPC: 0.157637 cumulative IPC: 0.159389 (Simulation time: 7 hr 32 min 19 sec) 
Heartbeat CPU 0 instructions: 1680000004 cycles: 7583505819 heartbeat IPC: 0.157998 cumulative IPC: 0.159377 (Simulation time: 7 hr 35 min 39 sec) 
Heartbeat CPU 0 instructions: 1690000004 cycles: 7643443022 heartbeat IPC: 0.166841 cumulative IPC: 0.159437 (Simulation time: 7 hr 38 min 23 sec) 
Heartbeat CPU 0 instructions: 1700000004 cycles: 7711264467 heartbeat IPC: 0.147446 cumulative IPC: 0.159329 (Simulation time: 7 hr 42 min 31 sec) 
Heartbeat CPU 0 instructions: 1710000001 cycles: 7778117110 heartbeat IPC: 0.149583 cumulative IPC: 0.159244 (Simulation time: 7 hr 46 min 22 sec) 
Heartbeat CPU 0 instructions: 1720000002 cycles: 7837756392 heartbeat IPC: 0.167675 cumulative IPC: 0.159309 (Simulation time: 7 hr 49 min 7 sec) 
Heartbeat CPU 0 instructions: 1730000000 cycles: 7900782947 heartbeat IPC: 0.158663 cumulative IPC: 0.159304 (Simulation time: 7 hr 52 min 26 sec) 
Heartbeat CPU 0 instructions: 1740000000 cycles: 7963925886 heartbeat IPC: 0.158371 cumulative IPC: 0.159296 (Simulation time: 7 hr 55 min 48 sec) 
Heartbeat CPU 0 instructions: 1750000000 cycles: 8027126710 heartbeat IPC: 0.158226 cumulative IPC: 0.159288 (Simulation time: 7 hr 59 min 4 sec) 
Heartbeat CPU 0 instructions: 1760000004 cycles: 8087070591 heartbeat IPC: 0.166823 cumulative IPC: 0.159345 (Simulation time: 8 hr 1 min 47 sec) 
Heartbeat CPU 0 instructions: 1770000004 cycles: 8147013401 heartbeat IPC: 0.166826 cumulative IPC: 0.159401 (Simulation time: 8 hr 4 min 29 sec) 
Heartbeat CPU 0 instructions: 1780000001 cycles: 8206786093 heartbeat IPC: 0.1673 cumulative IPC: 0.15946 (Simulation time: 8 hr 7 min 11 sec) 
Heartbeat CPU 0 instructions: 1790000001 cycles: 8266156050 heartbeat IPC: 0.168435 cumulative IPC: 0.159526 (Simulation time: 8 hr 9 min 53 sec) 
Heartbeat CPU 0 instructions: 1800000000 cycles: 8322872740 heartbeat IPC: 0.176315 cumulative IPC: 0.159643 (Simulation time: 8 hr 11 min 59 sec) 
Heartbeat CPU 0 instructions: 1810000004 cycles: 8386730758 heartbeat IPC: 0.156597 cumulative IPC: 0.159619 (Simulation time: 8 hr 15 min 21 sec) 
Heartbeat CPU 0 instructions: 1820000000 cycles: 8454447493 heartbeat IPC: 0.147674 cumulative IPC: 0.159521 (Simulation time: 8 hr 19 min 22 sec) 
Heartbeat CPU 0 instructions: 1830000000 cycles: 8514373326 heartbeat IPC: 0.166873 cumulative IPC: 0.159574 (Simulation time: 8 hr 22 min 6 sec) 
Heartbeat CPU 0 instructions: 1840000003 cycles: 8578653948 heartbeat IPC: 0.155568 cumulative IPC: 0.159544 (Simulation time: 8 hr 25 min 30 sec) 
Heartbeat CPU 0 instructions: 1850000002 cycles: 8645555187 heartbeat IPC: 0.149474 cumulative IPC: 0.159464 (Simulation time: 8 hr 29 min 26 sec) 
Heartbeat CPU 0 instructions: 1860000001 cycles: 8708799616 heartbeat IPC: 0.158117 cumulative IPC: 0.159454 (Simulation time: 8 hr 32 min 42 sec) 
Heartbeat CPU 0 instructions: 1870000000 cycles: 8772433791 heartbeat IPC: 0.157148 cumulative IPC: 0.159437 (Simulation time: 8 hr 36 min 9 sec) 
Heartbeat CPU 0 instructions: 1880000000 cycles: 8836289220 heartbeat IPC: 0.156604 cumulative IPC: 0.159416 (Simulation time: 8 hr 39 min 34 sec) 
Heartbeat CPU 0 instructions: 1890000000 cycles: 8896034816 heartbeat IPC: 0.167376 cumulative IPC: 0.159471 (Simulation time: 8 hr 42 min 17 sec) 
Heartbeat CPU 0 instructions: 1900000001 cycles: 8956008730 heartbeat IPC: 0.166739 cumulative IPC: 0.15952 (Simulation time: 8 hr 45 min 0 sec) 
Heartbeat CPU 0 instructions: 1910000000 cycles: 9023526209 heartbeat IPC: 0.14811 cumulative IPC: 0.159433 (Simulation time: 8 hr 49 min 1 sec) 
Heartbeat CPU 0 instructions: 1920000000 cycles: 9083133462 heartbeat IPC: 0.167765 cumulative IPC: 0.159489 (Simulation time: 8 hr 51 min 43 sec) 
Heartbeat CPU 0 instructions: 1930000001 cycles: 9144150428 heartbeat IPC: 0.163889 cumulative IPC: 0.159519 (Simulation time: 8 hr 54 min 30 sec) 
Heartbeat CPU 0 instructions: 1940000000 cycles: 9203626607 heartbeat IPC: 0.168135 cumulative IPC: 0.159576 (Simulation time: 8 hr 57 min 13 sec) 
Heartbeat CPU 0 instructions: 1950000002 cycles: 9267500280 heartbeat IPC: 0.156559 cumulative IPC: 0.159555 (Simulation time: 9 hr 0 min 39 sec) 
Heartbeat CPU 0 instructions: 1960000000 cycles: 9327077754 heartbeat IPC: 0.167849 cumulative IPC: 0.159609 (Simulation time: 9 hr 3 min 19 sec) 
Heartbeat CPU 0 instructions: 1970000001 cycles: 9389628414 heartbeat IPC: 0.15987 cumulative IPC: 0.15961 (Simulation time: 9 hr 6 min 38 sec) 
Heartbeat CPU 0 instructions: 1980000002 cycles: 9453534069 heartbeat IPC: 0.156481 cumulative IPC: 0.159589 (Simulation time: 9 hr 10 min 4 sec) 
Heartbeat CPU 0 instructions: 1990000004 cycles: 9519710723 heartbeat IPC: 0.151111 cumulative IPC: 0.159529 (Simulation time: 9 hr 13 min 55 sec) 
*** Reached end of trace: traces/473.astar-359B.champsimtrace.xz
Heartbeat CPU 0 instructions: 2000000000 cycles: 9582494157 heartbeat IPC: 0.159278 cumulative IPC: 0.159527 (Simulation time: 9 hr 17 min 12 sec) 
Finished CPU 0 instructions: 1500000000 cycles: 9402796179 cumulative IPC: 0.159527 (Simulation time: 9 hr 17 min 12 sec) 

ChampSim completed all CPUs

Region of Interest Statistics

CPU 0 cumulative IPC: 0.159527 instructions: 1500000000 cycles: 9402796179
cpu0_DTLB TOTAL     ACCESS:  481554350  HIT:  430271949  MISS:   51282401
cpu0_DTLB LOAD      ACCESS:  355974920  HIT:  321347839  MISS:   34627081
cpu0_DTLB RFO       ACCESS:  125579430  HIT:  108924110  MISS:   16655320
cpu0_DTLB PREFETCH  ACCESS:          0  HIT:          0  MISS:          0
cpu0_DTLB WRITEBACK ACCESS:          0  HIT:          0  MISS:          0
cpu0_DTLB TRANSLATION ACCESS:          0  HIT:          0  MISS:          0
cpu0_DTLB PREFETCH  REQUESTED:          0  ISSUED:          0  USEFUL:          0  USELESS:          0
cpu0_DTLB AVERAGE MISS LATENCY: 157.583 cycles
cpu0_ITLB TOTAL     ACCESS:  167583526  HIT:  167583525  MISS:          1
cpu0_ITLB LOAD      ACCESS:  167583526  HIT:  167583525  MISS:          1
cpu0_ITLB RFO       ACCESS:          0  HIT:          0  MISS:          0
cpu0_ITLB PREFETCH  ACCESS:          0  HIT:          0  MISS:          0
cpu0_ITLB WRITEBACK ACCESS:          0  HIT:          0  MISS:          0
cpu0_ITLB TRANSLATION ACCESS:          0  HIT:          0  MISS:          0
cpu0_ITLB PREFETCH  REQUESTED:          0  ISSUED:          0  USEFUL:          0  USELESS:          0
cpu0_ITLB AVERAGE MISS LATENCY: 217 cycles
cpu0_L1I TOTAL     ACCESS:       2186  HIT:       2172  MISS:         14
cpu0_L1I LOAD      ACCESS:       2186  HIT:       2172  MISS:         14
cpu0_L1I RFO       ACCESS:          0  HIT:          0  MISS:          0
cpu0_L1I PREFETCH  ACCESS:          0  HIT:          0  MISS:          0
cpu0_L1I WRITEBACK ACCESS:          0  HIT:          0  MISS:          0
cpu0_L1I TRANSLATION ACCESS:          0  HIT:          0  MISS:          0
cpu0_L1I PREFETCH  REQUESTED:          0  ISSUED:          0  USEFUL:          0  USELESS:          0
cpu0_L1I AVERAGE MISS LATENCY: 197.143 cycles
cpu0_STLB TOTAL     ACCESS:   51282402  HIT:   24048798  MISS:   27233604
cpu0_STLB LOAD      ACCESS:   34627082  HIT:   22609054  MISS:   12018028
cpu0_STLB RFO       ACCESS:   16655320  HIT:    1439744  MISS:   15215576
cpu0_STLB PREFETCH  ACCESS:          0  HIT:          0  MISS:          0
cpu0_STLB WRITEBACK ACCESS:          0  HIT:          0  MISS:          0
cpu0_STLB TRANSLATION ACCESS:          0  HIT:          0  MISS:          0
cpu0_STLB PREFETCH  REQUESTED:          0  ISSUED:          0  USEFUL:          0  USELESS:          0
cpu0_STLB AVERAGE MISS LATENCY: 279.514 cycles
cpu0_L1D TOTAL     ACCESS:  558892212  HIT:  479769852  MISS:   79122360
cpu0_L1D LOAD      ACCESS:  348333991  HIT:  298821480  MISS:   49512511
cpu0_L1D RFO       ACCESS:  190487351  HIT:  161039263  MISS:   29448088
cpu0_L1D PREFETCH  ACCESS:          0  HIT:          0  MISS:          0
cpu0_L1D WRITEBACK ACCESS:          0  HIT:          0  MISS:          0
cpu0_L1D TRANSLATION ACCESS:   20070870  HIT:   19909109  MISS:     161761
cpu0_L1D PREFETCH  REQUESTED:          0  ISSUED:          0  USEFUL:          0  USELESS:          0
cpu0_L1D AVERAGE MISS LATENCY: 569.624 cycles
cpu0_L2C TOTAL     ACCESS:  120248265  HIT:   61535987  MISS:   58712278
cpu0_L2C LOAD      ACCESS:   49512395  HIT:   18963771  MISS:   30548624
cpu0_L2C RFO       ACCESS:   29448087  HIT:    1307506  MISS:   28140581
cpu0_L2C PREFETCH  ACCESS:          0  HIT:          0  MISS:          0
cpu0_L2C WRITEBACK ACCESS:   41126022  HIT:   41122992  MISS:       3030
cpu0_L2C TRANSLATION ACCESS:     161761  HIT:     141718  MISS:      20043
cpu0_L2C PREFETCH  REQUESTED:          0  ISSUED:          0  USEFUL:          0  USELESS:          0
cpu0_L2C AVERAGE MISS LATENCY: 752.792 cycles
LLC TOTAL     ACCESS:   98467948  HIT:   42086494  MISS:   56381454
LLC LOAD      ACCESS:   30548624  HIT:     859764  MISS:   29688860
LLC RFO       ACCESS:   28140555  HIT:    1483686  MISS:   26656869
LLC PREFETCH  ACCESS:          0  HIT:          0  MISS:          0
LLC WRITEBACK ACCESS:   39758726  HIT:   39731428  MISS:      27298
LLC TRANSLATION ACCESS:      20043  HIT:      11616  MISS:       8427
LLC PREFETCH  REQUESTED:          0  ISSUED:          0  USEFUL:          0  USELESS:          0
LLC AVERAGE MISS LATENCY: 762.045 cycles
~~~~~~~~~~Reuse Distance Profiler output~~~~~~~~~~
0	102841376	21551968
1	74534608	52124256
2	59495424	49699056
3	43731104	32507328
4	34989440	26320624
5	32949216	27543296
6	31336912	22755600
7	27076224	19152176
8	30874496	17889904
9	19300496	12401200
10	11183184	7463024
11	13536352	5177552
12	9391984	5137744
13	7474096	3469568
14	4477232	3200752
15	5592496	4585664
16	7683984	6958880
17	6622624	5776656
18	6160688	5851504
19	6769552	6372912
20	4352256	4109808
21	4473248	4044368
22	3356352	3135680
23	2338848	2175648
24	2868720	2730512
25	3124768	2938672
26	3126448	2806416
27	2476032	2176736
28	2748192	2344400
29	2153248	1857696
30	1724192	1450064
31	1803648	1469280
32	1894176	1488640
33	1616000	1316992
34	1488336	1184176
35	1187040	919728
36	1348704	1005040
37	1770976	1379328
38	1557056	1257744
39	1572192	1277504
40	1446240	1189984
41	1540064	1212976
42	1361600	1055520
43	1698816	1285360
44	1751376	1367200
45	1444368	1134320
46	1369056	1039120
47	1286288	973024
48	1342800	962816
49	1175408	878544
50	1074368	809952
51	999984	736560
52	953344	704320
53	886128	662512
54	815632	610368
55	872336	666960
56	745728	551216
57	906464	721248
58	772240	599392
59	749264	583040
60	730256	569552
61	701056	543600
62	659600	501472
63	631328	481952
64	1226720	942624
66	1047520	783120
68	957488	716624
70	828784	621328
72	724752	536624
74	676880	514448
76	607248	466864
78	510352	383776
80	458688	350432
82	415904	321760
84	369936	286960
86	315392	238880
88	282080	217056
90	245008	185280
92	224432	170944
94	203536	157808
96	181520	141968
98	159056	122208
100	140176	109968
102	129584	102944
104	117696	93584
106	107552	85696
108	99856	82496
110	92768	74832
112	85616	70272
114	81344	68288
116	77760	65040
118	69328	59008
120	68752	60304
122	63824	55488
124	60800	53600
126	56560	50928
128	104752	95360
132	95952	88624
136	90624	84624
140	82304	76400
144	78832	74704
148	72992	69616
152	67232	64464
156	64416	62304
160	58048	56368
164	55072	53744
168	55232	54192
172	51264	50432
176	47488	46720
180	47456	46800
184	44432	44048
188	41600	41008
192	40064	39760
196	40096	39776
200	37968	37648
204	36768	36624
208	34832	34704
212	32832	32672
216	32624	32544
220	31632	31536
224	29280	29184
228	30048	30032
232	29536	29456
236	28080	28032
240	25808	25776
244	25280	25168
248	24432	24336
252	23712	23680
256	46816	46720
264	45696	45600
272	41648	41584
280	41648	41552
288	38352	38224
296	35616	35488
304	34176	34048
312	34144	34080
320	30416	30320
328	29872	29808
336	28832	28784
344	27696	27632
352	27456	27376
360	25840	25760
368	24480	24480
376	24544	24480
384	22848	22768
392	22880	22816
400	22416	22272
408	20528	20512
416	20256	20240
424	19296	19184
432	17552	17552
440	18896	18880
448	17840	17808
456	18160	18128
464	17344	17312
472	15456	15424
480	16096	16032
488	15440	15328
496	14544	14512
504	14320	14272
512	27776	27584
528	27792	27648
544	25776	25600
560	24160	23936
576	23056	22976
592	20816	20688
608	20544	20432
624	19936	19760
640	20336	20176
656	19808	19552
672	17616	17456
688	17648	17408
704	17152	17072
720	17344	17152
736	15520	15408
752	15984	15792
768	15488	15328
784	15024	14864
800	14128	13872
816	12896	12736
832	13184	13056
848	12272	12032
864	12224	12016
880	11440	11216
896	11504	11248
912	11376	11184
928	10592	10464
944	10544	10400
960	10496	10320
976	10592	10480
992	10624	10400
1008	10432	10176
1024	20192	19728
1056	18960	18528
1088	18944	18480
1120	17488	17072
1152	18336	17872
1184	16864	16336
1216	17632	17152
1248	16464	15888
1280	16576	16144
1312	15648	15248
1344	15728	15264
1376	15824	15248
1408	15248	14768
1440	14784	14320
1472	14928	14304
1504	14752	14240
1536	13984	13344
1568	14608	14096
1600	14864	14384
1632	14688	14160
1664	14128	13568
1696	14752	13856
1728	14192	13824
1760	13296	12688
1792	14080	13584
1824	13824	13184
1856	15392	14928
1888	14176	13456
1920	15120	14192
1952	14192	13520
1984	14272	13616
2016	15088	14480
2048	28272	26912
2112	29920	28576
2176	29776	28304
2240	30096	28448
2304	30128	28272
2368	30496	28944
2432	32272	30288
2496	31632	29760
2560	32032	30144
2624	32624	30640
2688	33904	31888
2752	31904	29936
2816	34208	32464
2880	34496	32192
2944	35376	33104
3008	33472	31728
3072	34624	32496
3136	37424	35200
3200	39920	37696
3264	37504	35152
3328	40352	37840
3392	40224	37824
3456	42048	39456
3520	43184	40672
3584	44144	41472
3648	44720	41696
3712	42912	39728
3776	45168	42256
3840	48800	46032
3904	48752	45840
3968	50752	47728
4032	51232	48336
4096	98528	92464
4224	100864	93840
4352	104032	97328
4480	112384	105744
4608	117952	111216
4736	122032	113856
4864	121952	113952
4992	119760	111952
5120	124496	117008
5248	127120	119120
5376	131424	122384
5504	139072	129440
5632	142992	133104
5760	152048	142112
5888	166624	155616
6016	172208	161344
6144	175456	164032
6272	170368	159744
6400	175200	163472
6528	183040	171152
6656	190048	178112
6784	188224	176496
6912	190080	178144
7040	189520	178384
7168	191920	179584
7296	194608	182608
7424	202000	188112
7552	215248	200976
7680	220768	205968
7808	221680	207984
7936	227744	213888
8064	235424	220896
8192	457488	427760
8448	479520	447264
8704	508576	474480
8960	546608	512512
9216	571632	535968
9472	600592	560592
9728	663152	617152
9984	760464	712512
10240	859616	804768
10496	926688	869856
10752	952016	891872
11008	987968	925680
11264	1010672	950384
11520	980384	920528
11776	951776	893536
12032	937440	878496
12288	936176	879824
12544	926016	869696
12800	913024	860512
13056	873744	822704
13312	828864	781440
13568	777136	732400
13824	688064	646864
14080	656832	618496
14336	595872	561040
14592	499360	470224
14848	452928	426112
15104	419696	396048
15360	380384	357232
15616	305440	285200
15872	263168	246688
16128	229408	214896
16384	434384	406032
16896	399456	374112
17408	383824	359456
17920	310976	289952
18432	259760	241664
18944	247296	229616
19456	220976	205600
19968	191952	176608
20480	195536	181472
20992	160560	148256
21504	128064	117072
22016	104624	94720
22528	102000	92160
23040	90560	81744
23552	88272	80720
24064	57280	49840
24576	57280	50448
25088	51168	44768
25600	42592	37232
26112	33264	27552
26624	24256	19360
27136	23008	18016
27648	17424	12032
28160	13248	8400
28672	10944	5968
29184	9360	4832
29696	9120	4560
30208	10416	5296
30720	9472	4832
31232	9776	5008
31744	10064	4496
32256	9952	5008
32768	20352	10304
33792	20240	9472
34816	20512	9952
35840	20848	10096
36864	21136	9776
37888	20816	10272
38912	21760	10288
39936	20784	9200
40960	21440	10448
41984	22192	10480
43008	22448	10288
44032	21376	9872
45056	21744	9984
46080	22480	9904
47104	22928	10048
48128	22496	9984
49152	22912	9920
50176	23664	10384
51200	22688	10224
52224	22800	10240
53248	23936	10672
54272	23968	10080
55296	25248	10208
56320	24848	11024
57344	24208	10512
58368	24992	10352
59392	25584	11104
60416	25120	11056
61440	25296	11136
62464	24992	10560
63488	25088	11024
64512	26208	10976
65536	54672	23056
67584	52544	22688
69632	52096	24144
71680	53072	23904
73728	50784	23168
75776	51488	23568
77824	53728	23408
79872	54848	25440
81920	57024	24880
83968	58832	25952
86016	56992	26336
88064	55680	25984
90112	53936	27024
92160	52512	25952
94208	52960	26880
96256	54592	29264
98304	55120	29152
100352	54128	29008
102400	54064	29072
104448	57312	30816
106496	82656	32976
108544	102944	35568
110592	103728	33648
112640	82640	31984
114688	56080	29584
116736	55952	29152
118784	55168	28352
120832	56112	28016
122880	55632	29056
124928	55648	28944
126976	55008	28288
129024	54480	28672
131072	184736	66800
135168	108960	56656
139264	111216	57504
143360	269504	75216
147456	227040	70208
151552	327264	82464
155648	262624	72800
159744	133984	59952
163840	110064	59120
167936	124400	60192
172032	163936	63184
176128	257744	74832
180224	108352	59408
184320	106704	57856
188416	127936	60416
192512	162672	65152
196608	130416	62352
200704	286256	79200
204800	199856	69536
208896	192128	67328
212992	259664	75536
217088	308768	80928
221184	256544	75488
225280	105408	56224
229376	181552	67520
233472	179936	66864
237568	128368	62528
241664	157744	63008
245760	177216	66688
249856	178368	66928
253952	175856	63984
258048	104128	56576
262144	352240	130736
270336	352576	134064
278528	348176	127200
286720	280416	120704
294912	279040	123648
303104	333536	126592
311296	647472	164096
319488	417392	137344
327680	212368	111616
335872	406416	137568
344064	347552	129776
352256	202864	110240
360448	279232	121072
368640	336032	129376
376832	338624	128224
385024	477280	145088
393216	406208	136560
401408	335568	129344
409600	201568	111024
417792	356736	128816
425984	322464	128640
434176	268704	122720
442368	333952	128192
450560	279328	125632
458752	391920	136480
466944	265792	119392
475136	336304	129648
483328	200640	111520
491520	263232	122192
499712	273600	122048
507904	333008	130976
516096	199728	112160
524288	653264	258064
540672	856992	285008
557056	412832	226640
573440	555584	245136
589824	642960	257984
606208	664528	263648
622592	499680	243104
638976	518720	244160
655360	636912	261536
671744	696992	268448
688128	568912	249888
704512	559360	248592
720896	615184	253184
737280	563952	250624
753664	559360	248608
770048	561888	253792
786432	618816	261952
802816	611200	262560
819200	499136	251456
835584	486976	244976
851968	662320	271184
868352	542800	255184
884736	649856	270816
901120	427024	239744
917504	605616	264224
933888	546640	259424
950272	543664	260352
966656	595600	267136
983040	512528	255952
999424	569312	264208
1015808	520448	253856
1032192	516640	255184
1048576	1240880	547008
1081344	1221456	535584
1114112	838720	472960
1146880	1187712	527424
1179648	1311968	552192
1212416	851296	473888
1245184	1128432	520816
1277952	1215776	534848
1310720	1122720	521744
1343488	1013120	501472
1376256	1021792	503792
1409024	912528	481456
1441792	919296	481248
1474560	1057328	513568
1507328	909744	478752
1540096	963888	482288
1572864	833472	459872
1605632	803152	444752
1638400	744512	426896
1671168	815056	446240
1703936	883536	467776
1736704	840448	439312
1769472	748672	418208
1802240	611968	373840
1835008	785552	425152
1867776	733872	409776
1900544	603584	373792
1933312	646688	382048
1966080	753344	405904
1998848	456752	326304
2031616	681264	380848
2064384	741136	393488
2097152	1118448	662272
2162688	877424	576128
2228224	932656	593152
2293760	843648	554960
2359296	507152	419440
2424832	472032	401120
2490368	333696	333616
2555904	313296	313232
2621440	301840	301728
2686976	277200	277136
2752512	265056	264976
2818048	262128	262016
2883584	264912	264880
2949120	252096	252064
3014656	234704	234672
3080192	227104	226928
3145728	224992	224896
3211264	213456	213376
3276800	202032	201952
3342336	206992	206976
3407872	214832	214704
3473408	208416	208384
3538944	184368	184320
3604480	150496	150432
3670016	133488	133456
3735552	119664	119632
3801088	115024	114976
3866624	112608	112608
3932160	108800	108752
3997696	112064	112032
4063232	101248	101136
4128768	98704	98704
4194304	161392	161216
4325376	142304	142224
4456448	118656	118608
4587520	118272	118256
4718592	125808	125712
4849664	105968	105856
4980736	94944	94912
5111808	74528	74464
5242880	69616	69504
5373952	69968	69936
5505024	72944	72896
5636096	58752	58736
5767168	61360	61280
5898240	52112	52032
6029312	72432	72432
6160384	62176	62144
6291456	54976	54864
6422528	52064	52000
6553600	47120	47072
6684672	49712	49680
6815744	44432	44400
6946816	41488	41424
7077888	53344	53264
7208960	36624	36592
7340032	33072	33072
7471104	27792	27760
7602176	25168	25136
7733248	22080	22064
7864320	21024	20960
7995392	16400	16384
8126464	15744	15744
8257536	16992	16992
8388608	27472	27408
8650752	23232	23184
8912896	18720	18672
9175040	19088	19072
9437184	20528	20496
9699328	12656	12592
9961472	9744	9664
10223616	8032	7968
10485760	5280	5200
10747904	4960	4928
11010048	9232	9216
11272192	8592	8496
11534336	6752	6688
11796480	5856	5840
12058624	3808	3760
12320768	6688	6672
12582912	5744	5728
12845056	4736	4704
13107200	3536	3520
13369344	4240	4224
13631488	8528	8496
13893632	3552	3552
14155776	1664	1648
14417920	1376	1328
14680064	1184	1168
14942208	2592	2576
15204352	1648	1648
15466496	720	720
15728640	1648	1632
15990784	1024	1024
16252928	1184	1152
16515072	704	688
16777216	2080	2032
17301504	1696	1664
17825792	1024	960
18350080	816	768
18874368	1168	1168
19398656	432	368
19922944	624	608
20447232	320	240
20971520	368	320
21495808	176	144
22020096	512	496
22544384	160	160
23068672	304	208
23592960	304	288
24117248	192	144
24641536	352	176
25165824	240	208
25690112	176	160
26214400	112	16
26738688	16	16
27262976	176	176
27787264	336	336
28311552	80	64
28835840	64	64
29360128	64	48
29884416	192	128
30408704	240	128
30932992	80	80
31457280	64	64
31981568	48	48
32505856	80	80
33030144	96	48
33554432	128	80
34603008	96	80
35651584	192	160
36700160	208	192
37748736	144	112
38797312	160	96
39845888	224	144
40894464	80	64
41943040	64	16
42991616	96	32
44040192	96	48
45088768	80	80
46137344	48	48
47185920	176	112
48234496	64	64
49283072	192	128
50331648	144	64
51380224	128	96
52428800	128	48
53477376	176	144
54525952	112	112
55574528	208	208
56623104	144	64
57671680	208	32
58720256	176	144
59768832	80	80
60817408	48	16
61865984	96	64
62914560	112	112
63963136	208	144
65011712	80	80
66060288	128	96
67108864	160	112
69206016	256	240
71303168	192	176
73400320	176	128
75497472	352	304
77594624	128	128
79691776	160	160
81788928	240	176
83886080	208	128
85983232	160	160
88080384	160	128
90177536	320	112
92274688	256	208
94371840	160	160
96468992	416	336
98566144	128	128
100663296	176	144
102760448	128	96
104857600	160	128
106954752	128	64
109051904	112	96
111149056	208	176
113246208	112	96
115343360	80	80
117440512	32	16
119537664	16	16
121634816	112	48
123731968	80	80
125829120	112	96
127926272	64	48
130023424	32	32
132120576	112	64
134217728	96	96
138412032	128	112
142606336	208	160
146800640	288	224
150994944	208	144
155189248	224	176
159383552	336	208
163577856	64	64
167772160	48	48
171966464	80	48
176160768	80	80
180355072	224	128
184549376	48	48
188743680	48	48
192937984	80	48
197132288	112	96
201326592	16	16
205520896	16	16
209715200	160	112
213909504	48	32
218103808	48	48
222298112	64	64
226492416	96	80
230686720	144	80
234881024	32	16
239075328	144	112
243269632	96	96
247463936	80	48
251658240	48	16
255852544	32	32
260046848	32	32
264241152	0	0
268435456	64	64
276824064	80	64
285212672	64	64
293601280	80	48
301989888	64	64
310378496	96	96
318767104	16	16
327155712	80	64
335544320	32	32
343932928	48	48
352321536	80	32
360710144	144	128
369098752	48	48
377487360	48	48
385875968	16	16
394264576	64	0
402653184	48	32
411041792	80	64
419430400	16	16
427819008	48	16
436207616	64	32
444596224	64	64
452984832	0	0
461373440	64	32
469762048	16	16
478150656	32	32
486539264	0	0
494927872	16	16
503316480	0	0
511705088	48	48
520093696	0	0
528482304	48	32
536870912	0	0
553648128	16	16
570425344	48	32
587202560	16	16
603979776	0	0
620756992	0	0
637534208	32	32
654311424	0	0
671088640	0	0
687865856	0	0
704643072	0	0
721420288	0	0
738197504	0	0
754974720	0	0
771751936	0	0
788529152	0	0
805306368	0	0
822083584	0	0
838860800	0	0
855638016	0	0
872415232	0	0
889192448	0	0
905969664	0	0
922746880	0	0
939524096	0	0
956301312	0	0
973078528	0	0
989855744	0	0
1006632960	0	0
1023410176	0	0
1040187392	0	0
1056964608	0	0
1073741824	0	0
1107296256	0	0
1140850688	0	0
1174405120	0	0
1207959552	0	0
1241513984	0	0
1275068416	0	0
1308622848	0	0
1342177280	0	0
1375731712	0	0
1409286144	0	0
1442840576	0	0
1476395008	0	0
1509949440	0	0
1543503872	0	0
1577058304	0	0
1610612736	0	0
1644167168	0	0
1677721600	0	0
1711276032	0	0
1744830464	0	0
1778384896	0	0
1811939328	0	0
1845493760	0	0
1879048192	0	0
1912602624	0	0
1946157056	0	0
1979711488	0	0
2013265920	0	0
2046820352	0	0
2080374784	0	0
2113929216	0	0
2147483648	0	0
2214592512	0	0
2281701376	0	0
2348810240	0	0
2415919104	0	0
2483027968	0	0
2550136832	0	0
2617245696	0	0
2684354560	0	0
2751463424	0	0
2818572288	0	0
2885681152	0	0
2952790016	0	0
3019898880	0	0
3087007744	0	0
3154116608	0	0
3221225472	0	0
3288334336	0	0
3355443200	0	0
3422552064	0	0
3489660928	0	0
3556769792	0	0
3623878656	0	0
3690987520	0	0
3758096384	0	0
3825205248	0	0
3892314112	0	0
3959422976	0	0
4026531840	0	0
4093640704	0	0
4160749568	0	0
4227858432	0	0
~~~~~~~~~~Reuse Distance Profiler output end~~~~~~~~~~

DRAM Statistics
 CHANNEL 0
 RQ ROW_BUFFER_HIT:     300926  ROW_BUFFER_MISS:   56043011
 DBUS AVG_CONGESTED_CYCLE:    4.00521
 WQ ROW_BUFFER_HIT:    6931867  ROW_BUFFER_MISS:   30808665  FULL:          0


CPU 0 Branch Prediction Accuracy: 89.3467% MPKI: 20.8146 Average ROB Occupancy at Mispredict: 27.5371
Branch type MPKI
BRANCH_DIRECT_JUMP: 3.33333e-06
BRANCH_INDIRECT: 0
BRANCH_CONDITIONAL: 20.8146
BRANCH_DIRECT_CALL: 6.66667e-07
BRANCH_INDIRECT_CALL: 8.66667e-06
BRANCH_RETURN: 1.33333e-06

