
*** ChampSim Multicore Out-of-Order Simulator ***

Warmup Instructions: 500000000
Simulation Instructions: 1500000000
Number of CPUs: 1
Off-chip DRAM Size: 4 GiB Channels: 1 Width: 64-bit Data Rate: 3200 MT/s

VirtualMemory physical capacity: 8588881920 num_ppages: 2096895
VirtualMemory page size: 4096 log2_page_size: 12

CPU 0 runs traces/473.astar-42B.champsimtrace.xz
CPU 0 Bimodal branch predictor
Basic BTB sets: 1024 ways: 8 indirect buffer size: 4096 RAS size: 64
Initializing LRU.
Initializing LRU.
Initializing LRU.
Initializing LRU.
Initializing rdLRU.
Initializing LRU.
Initializing LRU.
Heartbeat CPU 0 instructions: 10000004 cycles: 2926864 heartbeat IPC: 3.41663 cumulative IPC: 3.41663 (Simulation time: 0 hr 0 min 46 sec) 
Heartbeat CPU 0 instructions: 20000001 cycles: 5777824 heartbeat IPC: 3.50759 cumulative IPC: 3.46151 (Simulation time: 0 hr 1 min 31 sec) 
Heartbeat CPU 0 instructions: 30000002 cycles: 8657907 heartbeat IPC: 3.47212 cumulative IPC: 3.46504 (Simulation time: 0 hr 2 min 16 sec) 
Heartbeat CPU 0 instructions: 40000001 cycles: 11563736 heartbeat IPC: 3.44136 cumulative IPC: 3.45909 (Simulation time: 0 hr 3 min 2 sec) 
Heartbeat CPU 0 instructions: 50000002 cycles: 14460577 heartbeat IPC: 3.45204 cumulative IPC: 3.45768 (Simulation time: 0 hr 3 min 49 sec) 
Heartbeat CPU 0 instructions: 60000002 cycles: 17362052 heartbeat IPC: 3.44652 cumulative IPC: 3.45581 (Simulation time: 0 hr 4 min 34 sec) 
Heartbeat CPU 0 instructions: 70000000 cycles: 20239995 heartbeat IPC: 3.4747 cumulative IPC: 3.4585 (Simulation time: 0 hr 5 min 19 sec) 
Heartbeat CPU 0 instructions: 80000002 cycles: 23134924 heartbeat IPC: 3.45432 cumulative IPC: 3.45798 (Simulation time: 0 hr 6 min 4 sec) 
Heartbeat CPU 0 instructions: 90000002 cycles: 26048737 heartbeat IPC: 3.43193 cumulative IPC: 3.45506 (Simulation time: 0 hr 6 min 49 sec) 
Heartbeat CPU 0 instructions: 100000001 cycles: 28915544 heartbeat IPC: 3.4882 cumulative IPC: 3.45835 (Simulation time: 0 hr 7 min 33 sec) 
Heartbeat CPU 0 instructions: 110000003 cycles: 31791272 heartbeat IPC: 3.47738 cumulative IPC: 3.46007 (Simulation time: 0 hr 8 min 18 sec) 
Heartbeat CPU 0 instructions: 120000003 cycles: 34702637 heartbeat IPC: 3.43481 cumulative IPC: 3.45795 (Simulation time: 0 hr 9 min 5 sec) 
Heartbeat CPU 0 instructions: 130000002 cycles: 37589568 heartbeat IPC: 3.46389 cumulative IPC: 3.45841 (Simulation time: 0 hr 9 min 53 sec) 
Heartbeat CPU 0 instructions: 140000003 cycles: 40456949 heartbeat IPC: 3.4875 cumulative IPC: 3.46047 (Simulation time: 0 hr 10 min 44 sec) 
Heartbeat CPU 0 instructions: 150000002 cycles: 43345710 heartbeat IPC: 3.46169 cumulative IPC: 3.46055 (Simulation time: 0 hr 11 min 36 sec) 
Heartbeat CPU 0 instructions: 160000003 cycles: 46235077 heartbeat IPC: 3.46097 cumulative IPC: 3.46058 (Simulation time: 0 hr 12 min 37 sec) 
Heartbeat CPU 0 instructions: 170000001 cycles: 49128871 heartbeat IPC: 3.45567 cumulative IPC: 3.46029 (Simulation time: 0 hr 13 min 55 sec) 
Heartbeat CPU 0 instructions: 180000004 cycles: 52023177 heartbeat IPC: 3.45506 cumulative IPC: 3.46 (Simulation time: 0 hr 14 min 53 sec) 
Heartbeat CPU 0 instructions: 190000004 cycles: 54923670 heartbeat IPC: 3.44769 cumulative IPC: 3.45935 (Simulation time: 0 hr 15 min 37 sec) 
Heartbeat CPU 0 instructions: 200000002 cycles: 57810396 heartbeat IPC: 3.46413 cumulative IPC: 3.45959 (Simulation time: 0 hr 16 min 27 sec) 
Heartbeat CPU 0 instructions: 210000001 cycles: 60701034 heartbeat IPC: 3.45944 cumulative IPC: 3.45958 (Simulation time: 0 hr 17 min 14 sec) 
Heartbeat CPU 0 instructions: 220000000 cycles: 63606171 heartbeat IPC: 3.44218 cumulative IPC: 3.45878 (Simulation time: 0 hr 17 min 59 sec) 
Heartbeat CPU 0 instructions: 230000004 cycles: 66491162 heartbeat IPC: 3.46622 cumulative IPC: 3.45911 (Simulation time: 0 hr 18 min 58 sec) 
Heartbeat CPU 0 instructions: 240000004 cycles: 69378682 heartbeat IPC: 3.46318 cumulative IPC: 3.45928 (Simulation time: 0 hr 20 min 6 sec) 
Heartbeat CPU 0 instructions: 250000003 cycles: 72277627 heartbeat IPC: 3.44953 cumulative IPC: 3.45888 (Simulation time: 0 hr 21 min 2 sec) 
Heartbeat CPU 0 instructions: 260000003 cycles: 75171973 heartbeat IPC: 3.45501 cumulative IPC: 3.45874 (Simulation time: 0 hr 22 min 8 sec) 
Heartbeat CPU 0 instructions: 270000003 cycles: 78007213 heartbeat IPC: 3.52704 cumulative IPC: 3.46122 (Simulation time: 0 hr 23 min 8 sec) 
Heartbeat CPU 0 instructions: 280000001 cycles: 80899960 heartbeat IPC: 3.45692 cumulative IPC: 3.46106 (Simulation time: 0 hr 24 min 12 sec) 
Heartbeat CPU 0 instructions: 290000001 cycles: 83791720 heartbeat IPC: 3.4581 cumulative IPC: 3.46096 (Simulation time: 0 hr 25 min 10 sec) 
Heartbeat CPU 0 instructions: 300000000 cycles: 86697569 heartbeat IPC: 3.44133 cumulative IPC: 3.4603 (Simulation time: 0 hr 26 min 15 sec) 
Heartbeat CPU 0 instructions: 310000002 cycles: 89591548 heartbeat IPC: 3.45545 cumulative IPC: 3.46015 (Simulation time: 0 hr 27 min 27 sec) 
Heartbeat CPU 0 instructions: 320000004 cycles: 92457085 heartbeat IPC: 3.48975 cumulative IPC: 3.46107 (Simulation time: 0 hr 28 min 11 sec) 
Heartbeat CPU 0 instructions: 330000000 cycles: 95372441 heartbeat IPC: 3.43011 cumulative IPC: 3.46012 (Simulation time: 0 hr 28 min 54 sec) 
Heartbeat CPU 0 instructions: 340000001 cycles: 98269824 heartbeat IPC: 3.45139 cumulative IPC: 3.45986 (Simulation time: 0 hr 29 min 38 sec) 
Heartbeat CPU 0 instructions: 350000001 cycles: 101122120 heartbeat IPC: 3.50595 cumulative IPC: 3.46116 (Simulation time: 0 hr 30 min 21 sec) 
Heartbeat CPU 0 instructions: 360000002 cycles: 103980619 heartbeat IPC: 3.49834 cumulative IPC: 3.46218 (Simulation time: 0 hr 31 min 5 sec) 
Heartbeat CPU 0 instructions: 370000000 cycles: 106881755 heartbeat IPC: 3.44692 cumulative IPC: 3.46177 (Simulation time: 0 hr 31 min 49 sec) 
Heartbeat CPU 0 instructions: 380000001 cycles: 109770435 heartbeat IPC: 3.46179 cumulative IPC: 3.46177 (Simulation time: 0 hr 32 min 33 sec) 
Heartbeat CPU 0 instructions: 390000001 cycles: 112640939 heartbeat IPC: 3.48371 cumulative IPC: 3.46233 (Simulation time: 0 hr 33 min 16 sec) 
Heartbeat CPU 0 instructions: 400000001 cycles: 115520488 heartbeat IPC: 3.47277 cumulative IPC: 3.46259 (Simulation time: 0 hr 34 min 2 sec) 
Heartbeat CPU 0 instructions: 410000002 cycles: 118403877 heartbeat IPC: 3.46814 cumulative IPC: 3.46272 (Simulation time: 0 hr 34 min 46 sec) 
Heartbeat CPU 0 instructions: 420000002 cycles: 121281498 heartbeat IPC: 3.47509 cumulative IPC: 3.46302 (Simulation time: 0 hr 35 min 38 sec) 
Heartbeat CPU 0 instructions: 430000000 cycles: 124183406 heartbeat IPC: 3.44601 cumulative IPC: 3.46262 (Simulation time: 0 hr 36 min 49 sec) 
Heartbeat CPU 0 instructions: 440000000 cycles: 127086103 heartbeat IPC: 3.44507 cumulative IPC: 3.46222 (Simulation time: 0 hr 37 min 47 sec) 
Heartbeat CPU 0 instructions: 450000001 cycles: 130014181 heartbeat IPC: 3.41521 cumulative IPC: 3.46116 (Simulation time: 0 hr 38 min 59 sec) 
Heartbeat CPU 0 instructions: 460000004 cycles: 132940262 heartbeat IPC: 3.41754 cumulative IPC: 3.4602 (Simulation time: 0 hr 39 min 45 sec) 
Heartbeat CPU 0 instructions: 470000003 cycles: 135839457 heartbeat IPC: 3.44923 cumulative IPC: 3.45997 (Simulation time: 0 hr 40 min 29 sec) 
Heartbeat CPU 0 instructions: 480000002 cycles: 138723537 heartbeat IPC: 3.46731 cumulative IPC: 3.46012 (Simulation time: 0 hr 41 min 12 sec) 
Heartbeat CPU 0 instructions: 490000001 cycles: 141645163 heartbeat IPC: 3.42275 cumulative IPC: 3.45935 (Simulation time: 0 hr 41 min 56 sec) 
Heartbeat CPU 0 instructions: 500000002 cycles: 144553344 heartbeat IPC: 3.43858 cumulative IPC: 3.45893 (Simulation time: 0 hr 42 min 39 sec) 

Warmup complete CPU 0 instructions: 500000002 cycles: 144553344 (Simulation time: 0 hr 42 min 39 sec) 

Heartbeat CPU 0 instructions: 510000002 cycles: 166237404 heartbeat IPC: 0.461168 cumulative IPC: 0.461168 (Simulation time: 0 hr 43 min 22 sec) 
Heartbeat CPU 0 instructions: 520000004 cycles: 189372661 heartbeat IPC: 0.432241 cumulative IPC: 0.446236 (Simulation time: 0 hr 44 min 6 sec) 
Heartbeat CPU 0 instructions: 530000004 cycles: 212211547 heartbeat IPC: 0.43785 cumulative IPC: 0.443405 (Simulation time: 0 hr 44 min 51 sec) 
Heartbeat CPU 0 instructions: 540000004 cycles: 235355264 heartbeat IPC: 0.432083 cumulative IPC: 0.440519 (Simulation time: 0 hr 45 min 35 sec) 
Heartbeat CPU 0 instructions: 550000000 cycles: 259844287 heartbeat IPC: 0.408346 cumulative IPC: 0.433685 (Simulation time: 0 hr 46 min 22 sec) 
Heartbeat CPU 0 instructions: 560000000 cycles: 284669278 heartbeat IPC: 0.40282 cumulative IPC: 0.428217 (Simulation time: 0 hr 47 min 8 sec) 
Heartbeat CPU 0 instructions: 570000001 cycles: 310499348 heartbeat IPC: 0.387146 cumulative IPC: 0.421824 (Simulation time: 0 hr 48 min 22 sec) 
Heartbeat CPU 0 instructions: 580000002 cycles: 334036469 heartbeat IPC: 0.424861 cumulative IPC: 0.422201 (Simulation time: 0 hr 49 min 44 sec) 
Heartbeat CPU 0 instructions: 590000000 cycles: 356824355 heartbeat IPC: 0.43883 cumulative IPC: 0.423986 (Simulation time: 0 hr 50 min 55 sec) 
Heartbeat CPU 0 instructions: 600000004 cycles: 379426117 heartbeat IPC: 0.442444 cumulative IPC: 0.425762 (Simulation time: 0 hr 52 min 7 sec) 
Heartbeat CPU 0 instructions: 610000002 cycles: 402270839 heartbeat IPC: 0.437738 cumulative IPC: 0.426824 (Simulation time: 0 hr 53 min 8 sec) 
Heartbeat CPU 0 instructions: 620000001 cycles: 424340784 heartbeat IPC: 0.453105 cumulative IPC: 0.428897 (Simulation time: 0 hr 54 min 13 sec) 
Heartbeat CPU 0 instructions: 630000000 cycles: 446788605 heartbeat IPC: 0.445477 cumulative IPC: 0.430128 (Simulation time: 0 hr 55 min 19 sec) 
Heartbeat CPU 0 instructions: 640000003 cycles: 469305087 heartbeat IPC: 0.444119 cumulative IPC: 0.431099 (Simulation time: 0 hr 56 min 26 sec) 
Heartbeat CPU 0 instructions: 650000000 cycles: 492196546 heartbeat IPC: 0.436844 cumulative IPC: 0.431477 (Simulation time: 0 hr 57 min 23 sec) 
Heartbeat CPU 0 instructions: 660000002 cycles: 515063429 heartbeat IPC: 0.437314 cumulative IPC: 0.431837 (Simulation time: 0 hr 58 min 31 sec) 
Heartbeat CPU 0 instructions: 670000000 cycles: 537915512 heartbeat IPC: 0.437597 cumulative IPC: 0.432172 (Simulation time: 0 hr 59 min 36 sec) 
Heartbeat CPU 0 instructions: 680000000 cycles: 560115194 heartbeat IPC: 0.450457 cumulative IPC: 0.433149 (Simulation time: 1 hr 0 min 45 sec) 
Heartbeat CPU 0 instructions: 690000000 cycles: 583940286 heartbeat IPC: 0.419726 cumulative IPC: 0.432421 (Simulation time: 1 hr 2 min 10 sec) 
Heartbeat CPU 0 instructions: 700000002 cycles: 608288547 heartbeat IPC: 0.410707 cumulative IPC: 0.431281 (Simulation time: 1 hr 3 min 30 sec) 
Heartbeat CPU 0 instructions: 710000004 cycles: 631770339 heartbeat IPC: 0.425862 cumulative IPC: 0.431019 (Simulation time: 1 hr 4 min 45 sec) 
Heartbeat CPU 0 instructions: 720000000 cycles: 655655335 heartbeat IPC: 0.418673 cumulative IPC: 0.430442 (Simulation time: 1 hr 6 min 10 sec) 
Heartbeat CPU 0 instructions: 730000001 cycles: 680737408 heartbeat IPC: 0.398691 cumulative IPC: 0.428957 (Simulation time: 1 hr 7 min 38 sec) 
Heartbeat CPU 0 instructions: 740000000 cycles: 704145867 heartbeat IPC: 0.427196 cumulative IPC: 0.428883 (Simulation time: 1 hr 8 min 29 sec) 
Heartbeat CPU 0 instructions: 750000000 cycles: 727099895 heartbeat IPC: 0.435653 cumulative IPC: 0.42915 (Simulation time: 1 hr 9 min 14 sec) 
Heartbeat CPU 0 instructions: 760000001 cycles: 751117688 heartbeat IPC: 0.416358 cumulative IPC: 0.428644 (Simulation time: 1 hr 10 min 0 sec) 
Heartbeat CPU 0 instructions: 770000001 cycles: 776144472 heartbeat IPC: 0.399572 cumulative IPC: 0.427492 (Simulation time: 1 hr 10 min 47 sec) 
Heartbeat CPU 0 instructions: 780000000 cycles: 801219157 heartbeat IPC: 0.398809 cumulative IPC: 0.426396 (Simulation time: 1 hr 12 min 7 sec) 
Heartbeat CPU 0 instructions: 790000001 cycles: 826253618 heartbeat IPC: 0.399449 cumulative IPC: 0.425407 (Simulation time: 1 hr 13 min 7 sec) 
Heartbeat CPU 0 instructions: 800000002 cycles: 849401670 heartbeat IPC: 0.432002 cumulative IPC: 0.425623 (Simulation time: 1 hr 14 min 10 sec) 
Heartbeat CPU 0 instructions: 810000001 cycles: 873379775 heartbeat IPC: 0.417047 cumulative IPC: 0.425341 (Simulation time: 1 hr 15 min 35 sec) 
Heartbeat CPU 0 instructions: 820000001 cycles: 895522532 heartbeat IPC: 0.451615 cumulative IPC: 0.426116 (Simulation time: 1 hr 16 min 50 sec) 
Heartbeat CPU 0 instructions: 830000000 cycles: 919009073 heartbeat IPC: 0.425776 cumulative IPC: 0.426106 (Simulation time: 1 hr 17 min 42 sec) 
Heartbeat CPU 0 instructions: 840000002 cycles: 942307014 heartbeat IPC: 0.429223 cumulative IPC: 0.426197 (Simulation time: 1 hr 18 min 36 sec) 
Heartbeat CPU 0 instructions: 850000003 cycles: 966387523 heartbeat IPC: 0.415274 cumulative IPC: 0.425877 (Simulation time: 1 hr 19 min 23 sec) 
Heartbeat CPU 0 instructions: 860000000 cycles: 989955812 heartbeat IPC: 0.424299 cumulative IPC: 0.425833 (Simulation time: 1 hr 20 min 9 sec) 
Heartbeat CPU 0 instructions: 870000000 cycles: 1013179016 heartbeat IPC: 0.430604 cumulative IPC: 0.42596 (Simulation time: 1 hr 21 min 23 sec) 
Heartbeat CPU 0 instructions: 880000004 cycles: 1035398915 heartbeat IPC: 0.450047 cumulative IPC: 0.426561 (Simulation time: 1 hr 22 min 30 sec) 
Heartbeat CPU 0 instructions: 890000000 cycles: 1058441127 heartbeat IPC: 0.433986 cumulative IPC: 0.426748 (Simulation time: 1 hr 23 min 51 sec) 
Heartbeat CPU 0 instructions: 900000004 cycles: 1081970273 heartbeat IPC: 0.425005 cumulative IPC: 0.426704 (Simulation time: 1 hr 25 min 15 sec) 
Heartbeat CPU 0 instructions: 910000001 cycles: 1103877627 heartbeat IPC: 0.456468 cumulative IPC: 0.427384 (Simulation time: 1 hr 26 min 37 sec) 
Heartbeat CPU 0 instructions: 920000000 cycles: 1126615061 heartbeat IPC: 0.439803 cumulative IPC: 0.427672 (Simulation time: 1 hr 27 min 58 sec) 
Heartbeat CPU 0 instructions: 930000000 cycles: 1150214982 heartbeat IPC: 0.42373 cumulative IPC: 0.427579 (Simulation time: 1 hr 29 min 23 sec) 
Heartbeat CPU 0 instructions: 940000000 cycles: 1173677665 heartbeat IPC: 0.426209 cumulative IPC: 0.427548 (Simulation time: 1 hr 30 min 17 sec) 
Heartbeat CPU 0 instructions: 950000004 cycles: 1198047016 heartbeat IPC: 0.410352 cumulative IPC: 0.42715 (Simulation time: 1 hr 31 min 6 sec) 
Heartbeat CPU 0 instructions: 960000000 cycles: 1223239580 heartbeat IPC: 0.396942 cumulative IPC: 0.426445 (Simulation time: 1 hr 31 min 55 sec) 
Heartbeat CPU 0 instructions: 970000004 cycles: 1248482092 heartbeat IPC: 0.396157 cumulative IPC: 0.425752 (Simulation time: 1 hr 33 min 9 sec) 
Heartbeat CPU 0 instructions: 980000000 cycles: 1274116769 heartbeat IPC: 0.390096 cumulative IPC: 0.424943 (Simulation time: 1 hr 34 min 31 sec) 
Heartbeat CPU 0 instructions: 990000002 cycles: 1299051737 heartbeat IPC: 0.401043 cumulative IPC: 0.424427 (Simulation time: 1 hr 36 min 1 sec) 
Heartbeat CPU 0 instructions: 1000000000 cycles: 1325103707 heartbeat IPC: 0.383848 cumulative IPC: 0.423531 (Simulation time: 1 hr 37 min 7 sec) 
Heartbeat CPU 0 instructions: 1010000003 cycles: 1354706970 heartbeat IPC: 0.337801 cumulative IPC: 0.421434 (Simulation time: 1 hr 38 min 0 sec) 
Heartbeat CPU 0 instructions: 1020000001 cycles: 1378955824 heartbeat IPC: 0.412391 cumulative IPC: 0.421256 (Simulation time: 1 hr 38 min 47 sec) 
Heartbeat CPU 0 instructions: 1030000000 cycles: 1402099956 heartbeat IPC: 0.432075 cumulative IPC: 0.421456 (Simulation time: 1 hr 39 min 32 sec) 
Heartbeat CPU 0 instructions: 1040000000 cycles: 1426753030 heartbeat IPC: 0.405629 cumulative IPC: 0.421151 (Simulation time: 1 hr 40 min 19 sec) 
Heartbeat CPU 0 instructions: 1050000002 cycles: 1450353548 heartbeat IPC: 0.42372 cumulative IPC: 0.421198 (Simulation time: 1 hr 41 min 5 sec) 
Heartbeat CPU 0 instructions: 1060000004 cycles: 1472926969 heartbeat IPC: 0.442999 cumulative IPC: 0.421568 (Simulation time: 1 hr 41 min 49 sec) 
Heartbeat CPU 0 instructions: 1070000000 cycles: 1495333704 heartbeat IPC: 0.446294 cumulative IPC: 0.421978 (Simulation time: 1 hr 42 min 34 sec) 
Heartbeat CPU 0 instructions: 1080000002 cycles: 1518797660 heartbeat IPC: 0.426186 cumulative IPC: 0.42205 (Simulation time: 1 hr 43 min 48 sec) 
Heartbeat CPU 0 instructions: 1090000000 cycles: 1543228842 heartbeat IPC: 0.409313 cumulative IPC: 0.421828 (Simulation time: 1 hr 44 min 35 sec) 
Heartbeat CPU 0 instructions: 1100000000 cycles: 1567424548 heartbeat IPC: 0.413296 cumulative IPC: 0.421683 (Simulation time: 1 hr 45 min 21 sec) 
Heartbeat CPU 0 instructions: 1110000001 cycles: 1592165080 heartbeat IPC: 0.404195 cumulative IPC: 0.421384 (Simulation time: 1 hr 46 min 21 sec) 
Heartbeat CPU 0 instructions: 1120000004 cycles: 1618026121 heartbeat IPC: 0.386682 cumulative IPC: 0.420775 (Simulation time: 1 hr 47 min 53 sec) 
Heartbeat CPU 0 instructions: 1130000004 cycles: 1642262137 heartbeat IPC: 0.412609 cumulative IPC: 0.420643 (Simulation time: 1 hr 49 min 17 sec) 
Heartbeat CPU 0 instructions: 1140000001 cycles: 1665108791 heartbeat IPC: 0.437701 cumulative IPC: 0.420899 (Simulation time: 1 hr 50 min 2 sec) 
Heartbeat CPU 0 instructions: 1150000000 cycles: 1688487591 heartbeat IPC: 0.427738 cumulative IPC: 0.421002 (Simulation time: 1 hr 50 min 47 sec) 
Heartbeat CPU 0 instructions: 1160000004 cycles: 1710399576 heartbeat IPC: 0.456371 cumulative IPC: 0.421497 (Simulation time: 1 hr 51 min 33 sec) 
Heartbeat CPU 0 instructions: 1170000004 cycles: 1733676398 heartbeat IPC: 0.429612 cumulative IPC: 0.421616 (Simulation time: 1 hr 52 min 40 sec) 
Heartbeat CPU 0 instructions: 1180000003 cycles: 1757447911 heartbeat IPC: 0.420672 cumulative IPC: 0.421602 (Simulation time: 1 hr 54 min 5 sec) 
Heartbeat CPU 0 instructions: 1190000002 cycles: 1781042265 heartbeat IPC: 0.42383 cumulative IPC: 0.421634 (Simulation time: 1 hr 55 min 3 sec) 
Heartbeat CPU 0 instructions: 1200000003 cycles: 1805773038 heartbeat IPC: 0.404355 cumulative IPC: 0.421377 (Simulation time: 1 hr 55 min 53 sec) 
Heartbeat CPU 0 instructions: 1210000001 cycles: 1831445140 heartbeat IPC: 0.389528 cumulative IPC: 0.420892 (Simulation time: 1 hr 56 min 45 sec) 
Heartbeat CPU 0 instructions: 1220000000 cycles: 1857785155 heartbeat IPC: 0.37965 cumulative IPC: 0.420258 (Simulation time: 1 hr 57 min 38 sec) 
Heartbeat CPU 0 instructions: 1230000001 cycles: 1883638783 heartbeat IPC: 0.386793 cumulative IPC: 0.419761 (Simulation time: 1 hr 58 min 47 sec) 
Heartbeat CPU 0 instructions: 1240000004 cycles: 1909597433 heartbeat IPC: 0.385228 cumulative IPC: 0.419253 (Simulation time: 1 hr 59 min 50 sec) 
Heartbeat CPU 0 instructions: 1250000000 cycles: 1934409425 heartbeat IPC: 0.403031 cumulative IPC: 0.419028 (Simulation time: 2 hr 0 min 42 sec) 
Heartbeat CPU 0 instructions: 1260000004 cycles: 1958840862 heartbeat IPC: 0.409309 cumulative IPC: 0.418897 (Simulation time: 2 hr 1 min 38 sec) 
Heartbeat CPU 0 instructions: 1270000002 cycles: 1982340483 heartbeat IPC: 0.425539 cumulative IPC: 0.418982 (Simulation time: 2 hr 2 min 45 sec) 
Heartbeat CPU 0 instructions: 1280000000 cycles: 2004972602 heartbeat IPC: 0.44185 cumulative IPC: 0.41926 (Simulation time: 2 hr 3 min 29 sec) 
Heartbeat CPU 0 instructions: 1290000001 cycles: 2027868109 heartbeat IPC: 0.436767 cumulative IPC: 0.419473 (Simulation time: 2 hr 4 min 18 sec) 
Heartbeat CPU 0 instructions: 1300000003 cycles: 2051087323 heartbeat IPC: 0.430678 cumulative IPC: 0.41961 (Simulation time: 2 hr 5 min 8 sec) 
Heartbeat CPU 0 instructions: 1310000002 cycles: 2073921848 heartbeat IPC: 0.437933 cumulative IPC: 0.419826 (Simulation time: 2 hr 5 min 53 sec) 
Heartbeat CPU 0 instructions: 1320000000 cycles: 2097472965 heartbeat IPC: 0.424608 cumulative IPC: 0.419884 (Simulation time: 2 hr 6 min 40 sec) 
Heartbeat CPU 0 instructions: 1330000003 cycles: 2122359663 heartbeat IPC: 0.401821 cumulative IPC: 0.419657 (Simulation time: 2 hr 7 min 29 sec) 
Heartbeat CPU 0 instructions: 1340000001 cycles: 2145286533 heartbeat IPC: 0.436169 cumulative IPC: 0.419846 (Simulation time: 2 hr 8 min 16 sec) 
Heartbeat CPU 0 instructions: 1350000002 cycles: 2168632062 heartbeat IPC: 0.428348 cumulative IPC: 0.419944 (Simulation time: 2 hr 9 min 2 sec) 
Heartbeat CPU 0 instructions: 1360000004 cycles: 2191794592 heartbeat IPC: 0.431732 cumulative IPC: 0.420078 (Simulation time: 2 hr 9 min 54 sec) 
Heartbeat CPU 0 instructions: 1370000000 cycles: 2214475031 heartbeat IPC: 0.440908 cumulative IPC: 0.420306 (Simulation time: 2 hr 10 min 46 sec) 
Heartbeat CPU 0 instructions: 1380000000 cycles: 2237292034 heartbeat IPC: 0.43827 cumulative IPC: 0.420502 (Simulation time: 2 hr 11 min 57 sec) 
Heartbeat CPU 0 instructions: 1390000000 cycles: 2259938545 heartbeat IPC: 0.441569 cumulative IPC: 0.420727 (Simulation time: 2 hr 12 min 49 sec) 
Heartbeat CPU 0 instructions: 1400000000 cycles: 2282867680 heartbeat IPC: 0.436126 cumulative IPC: 0.420892 (Simulation time: 2 hr 14 min 10 sec) 
Heartbeat CPU 0 instructions: 1410000002 cycles: 2306972609 heartbeat IPC: 0.414853 cumulative IPC: 0.420825 (Simulation time: 2 hr 15 min 31 sec) 
Heartbeat CPU 0 instructions: 1420000000 cycles: 2329986015 heartbeat IPC: 0.434529 cumulative IPC: 0.420969 (Simulation time: 2 hr 16 min 30 sec) 
Heartbeat CPU 0 instructions: 1430000000 cycles: 2354045537 heartbeat IPC: 0.415636 cumulative IPC: 0.420911 (Simulation time: 2 hr 17 min 47 sec) 
Heartbeat CPU 0 instructions: 1440000001 cycles: 2379534836 heartbeat IPC: 0.392322 cumulative IPC: 0.420585 (Simulation time: 2 hr 19 min 16 sec) 
Heartbeat CPU 0 instructions: 1450000000 cycles: 2404779033 heartbeat IPC: 0.396131 cumulative IPC: 0.420312 (Simulation time: 2 hr 20 min 24 sec) 
Heartbeat CPU 0 instructions: 1460000000 cycles: 2433152968 heartbeat IPC: 0.352436 cumulative IPC: 0.41947 (Simulation time: 2 hr 21 min 47 sec) 
Heartbeat CPU 0 instructions: 1470000000 cycles: 2455930137 heartbeat IPC: 0.439036 cumulative IPC: 0.419663 (Simulation time: 2 hr 22 min 50 sec) 
Heartbeat CPU 0 instructions: 1480000000 cycles: 2479223527 heartbeat IPC: 0.429306 cumulative IPC: 0.41976 (Simulation time: 2 hr 23 min 42 sec) 
Heartbeat CPU 0 instructions: 1490000000 cycles: 2502412313 heartbeat IPC: 0.431243 cumulative IPC: 0.419872 (Simulation time: 2 hr 24 min 27 sec) 
Heartbeat CPU 0 instructions: 1500000002 cycles: 2524998857 heartbeat IPC: 0.442742 cumulative IPC: 0.420089 (Simulation time: 2 hr 25 min 11 sec) 
Heartbeat CPU 0 instructions: 1510000000 cycles: 2547842530 heartbeat IPC: 0.437758 cumulative IPC: 0.420257 (Simulation time: 2 hr 25 min 56 sec) 
Heartbeat CPU 0 instructions: 1520000004 cycles: 2570509042 heartbeat IPC: 0.44118 cumulative IPC: 0.420453 (Simulation time: 2 hr 26 min 40 sec) 
Heartbeat CPU 0 instructions: 1530000002 cycles: 2593723101 heartbeat IPC: 0.430773 cumulative IPC: 0.420551 (Simulation time: 2 hr 27 min 25 sec) 
Heartbeat CPU 0 instructions: 1540000001 cycles: 2616967840 heartbeat IPC: 0.430205 cumulative IPC: 0.420641 (Simulation time: 2 hr 28 min 9 sec) 
Heartbeat CPU 0 instructions: 1550000001 cycles: 2638772951 heartbeat IPC: 0.458608 cumulative IPC: 0.420973 (Simulation time: 2 hr 28 min 52 sec) 
Heartbeat CPU 0 instructions: 1560000000 cycles: 2661836731 heartbeat IPC: 0.43358 cumulative IPC: 0.421089 (Simulation time: 2 hr 29 min 36 sec) 
Heartbeat CPU 0 instructions: 1570000003 cycles: 2685228546 heartbeat IPC: 0.4275 cumulative IPC: 0.421148 (Simulation time: 2 hr 30 min 21 sec) 
Heartbeat CPU 0 instructions: 1580000001 cycles: 2708216943 heartbeat IPC: 0.435002 cumulative IPC: 0.421272 (Simulation time: 2 hr 31 min 6 sec) 
Heartbeat CPU 0 instructions: 1590000000 cycles: 2731978496 heartbeat IPC: 0.420848 cumulative IPC: 0.421268 (Simulation time: 2 hr 31 min 51 sec) 
Heartbeat CPU 0 instructions: 1600000000 cycles: 2754584507 heartbeat IPC: 0.44236 cumulative IPC: 0.421451 (Simulation time: 2 hr 32 min 36 sec) 
Heartbeat CPU 0 instructions: 1610000001 cycles: 2777264387 heartbeat IPC: 0.440919 cumulative IPC: 0.421619 (Simulation time: 2 hr 33 min 21 sec) 
Heartbeat CPU 0 instructions: 1620000001 cycles: 2800211683 heartbeat IPC: 0.435781 cumulative IPC: 0.421741 (Simulation time: 2 hr 34 min 16 sec) 
Heartbeat CPU 0 instructions: 1630000002 cycles: 2824472708 heartbeat IPC: 0.412184 cumulative IPC: 0.421654 (Simulation time: 2 hr 35 min 14 sec) 
Heartbeat CPU 0 instructions: 1640000003 cycles: 2848605655 heartbeat IPC: 0.414371 cumulative IPC: 0.421589 (Simulation time: 2 hr 36 min 0 sec) 
Heartbeat CPU 0 instructions: 1650000001 cycles: 2872499236 heartbeat IPC: 0.418522 cumulative IPC: 0.421563 (Simulation time: 2 hr 36 min 47 sec) 
Heartbeat CPU 0 instructions: 1660000000 cycles: 2894919298 heartbeat IPC: 0.446029 cumulative IPC: 0.421762 (Simulation time: 2 hr 37 min 30 sec) 
Heartbeat CPU 0 instructions: 1670000000 cycles: 2917155614 heartbeat IPC: 0.449715 cumulative IPC: 0.421986 (Simulation time: 2 hr 38 min 13 sec) 
Heartbeat CPU 0 instructions: 1680000002 cycles: 2940477372 heartbeat IPC: 0.428784 cumulative IPC: 0.422043 (Simulation time: 2 hr 38 min 57 sec) 
Heartbeat CPU 0 instructions: 1690000003 cycles: 2963366877 heartbeat IPC: 0.436881 cumulative IPC: 0.422163 (Simulation time: 2 hr 39 min 40 sec) 
Heartbeat CPU 0 instructions: 1700000004 cycles: 2986892207 heartbeat IPC: 0.425074 cumulative IPC: 0.422188 (Simulation time: 2 hr 40 min 25 sec) 
Heartbeat CPU 0 instructions: 1710000000 cycles: 3011790168 heartbeat IPC: 0.401639 cumulative IPC: 0.422009 (Simulation time: 2 hr 41 min 12 sec) 
Heartbeat CPU 0 instructions: 1720000004 cycles: 3037606000 heartbeat IPC: 0.387359 cumulative IPC: 0.4217 (Simulation time: 2 hr 42 min 0 sec) 
Heartbeat CPU 0 instructions: 1730000001 cycles: 3061975255 heartbeat IPC: 0.410353 cumulative IPC: 0.421605 (Simulation time: 2 hr 42 min 46 sec) 
Heartbeat CPU 0 instructions: 1740000000 cycles: 3084989347 heartbeat IPC: 0.434516 cumulative IPC: 0.421706 (Simulation time: 2 hr 43 min 31 sec) 
Heartbeat CPU 0 instructions: 1750000003 cycles: 3108272782 heartbeat IPC: 0.42949 cumulative IPC: 0.421767 (Simulation time: 2 hr 44 min 16 sec) 
Heartbeat CPU 0 instructions: 1760000000 cycles: 3131656165 heartbeat IPC: 0.427654 cumulative IPC: 0.421813 (Simulation time: 2 hr 45 min 1 sec) 
Heartbeat CPU 0 instructions: 1770000001 cycles: 3154327852 heartbeat IPC: 0.441079 cumulative IPC: 0.421959 (Simulation time: 2 hr 45 min 45 sec) 
Heartbeat CPU 0 instructions: 1780000001 cycles: 3176758060 heartbeat IPC: 0.445827 cumulative IPC: 0.422135 (Simulation time: 2 hr 46 min 52 sec) 
Heartbeat CPU 0 instructions: 1790000002 cycles: 3198798223 heartbeat IPC: 0.453717 cumulative IPC: 0.422363 (Simulation time: 2 hr 47 min 45 sec) 
Heartbeat CPU 0 instructions: 1800000000 cycles: 3221666038 heartbeat IPC: 0.437296 cumulative IPC: 0.422474 (Simulation time: 2 hr 48 min 32 sec) 
Heartbeat CPU 0 instructions: 1810000000 cycles: 3244081119 heartbeat IPC: 0.446128 cumulative IPC: 0.422645 (Simulation time: 2 hr 49 min 18 sec) 
Heartbeat CPU 0 instructions: 1820000004 cycles: 3268424402 heartbeat IPC: 0.410791 cumulative IPC: 0.422553 (Simulation time: 2 hr 50 min 7 sec) 
Heartbeat CPU 0 instructions: 1830000000 cycles: 3291143296 heartbeat IPC: 0.440162 cumulative IPC: 0.42268 (Simulation time: 2 hr 50 min 54 sec) 
Heartbeat CPU 0 instructions: 1840000003 cycles: 3314057764 heartbeat IPC: 0.436406 cumulative IPC: 0.422779 (Simulation time: 2 hr 51 min 40 sec) 
Heartbeat CPU 0 instructions: 1850000000 cycles: 3336599304 heartbeat IPC: 0.443625 cumulative IPC: 0.422926 (Simulation time: 2 hr 52 min 27 sec) 
Heartbeat CPU 0 instructions: 1860000000 cycles: 3359573585 heartbeat IPC: 0.435269 cumulative IPC: 0.423014 (Simulation time: 2 hr 53 min 14 sec) 
Heartbeat CPU 0 instructions: 1870000000 cycles: 3382702768 heartbeat IPC: 0.432354 cumulative IPC: 0.423081 (Simulation time: 2 hr 54 min 1 sec) 
Heartbeat CPU 0 instructions: 1880000003 cycles: 3406169940 heartbeat IPC: 0.426127 cumulative IPC: 0.423103 (Simulation time: 2 hr 54 min 47 sec) 
Heartbeat CPU 0 instructions: 1890000000 cycles: 3430114598 heartbeat IPC: 0.41763 cumulative IPC: 0.423063 (Simulation time: 2 hr 55 min 34 sec) 
Heartbeat CPU 0 instructions: 1900000001 cycles: 3453493646 heartbeat IPC: 0.427733 cumulative IPC: 0.423096 (Simulation time: 2 hr 56 min 21 sec) 
Heartbeat CPU 0 instructions: 1910000001 cycles: 3476724650 heartbeat IPC: 0.430459 cumulative IPC: 0.423147 (Simulation time: 2 hr 57 min 7 sec) 
Heartbeat CPU 0 instructions: 1920000000 cycles: 3500227644 heartbeat IPC: 0.425478 cumulative IPC: 0.423164 (Simulation time: 2 hr 57 min 53 sec) 
Heartbeat CPU 0 instructions: 1930000000 cycles: 3524069972 heartbeat IPC: 0.419422 cumulative IPC: 0.423137 (Simulation time: 2 hr 58 min 40 sec) 
Heartbeat CPU 0 instructions: 1940000000 cycles: 3548742355 heartbeat IPC: 0.405311 cumulative IPC: 0.423008 (Simulation time: 2 hr 59 min 31 sec) 
Heartbeat CPU 0 instructions: 1950000004 cycles: 3571431886 heartbeat IPC: 0.440732 cumulative IPC: 0.423126 (Simulation time: 3 hr 0 min 16 sec) 
Heartbeat CPU 0 instructions: 1960000000 cycles: 3594102551 heartbeat IPC: 0.441098 cumulative IPC: 0.423244 (Simulation time: 3 hr 1 min 1 sec) 
Heartbeat CPU 0 instructions: 1970000004 cycles: 3617066658 heartbeat IPC: 0.435462 cumulative IPC: 0.423325 (Simulation time: 3 hr 1 min 45 sec) 
Heartbeat CPU 0 instructions: 1980000000 cycles: 3639912507 heartbeat IPC: 0.437716 cumulative IPC: 0.423419 (Simulation time: 3 hr 2 min 31 sec) 
Heartbeat CPU 0 instructions: 1990000002 cycles: 3663903582 heartbeat IPC: 0.416822 cumulative IPC: 0.423374 (Simulation time: 3 hr 3 min 17 sec) 
*** Reached end of trace: traces/473.astar-42B.champsimtrace.xz
Heartbeat CPU 0 instructions: 2000000002 cycles: 3686035188 heartbeat IPC: 0.451842 cumulative IPC: 0.423552 (Simulation time: 3 hr 4 min 1 sec) 
Finished CPU 0 instructions: 1500000000 cycles: 3541481844 cumulative IPC: 0.423552 (Simulation time: 3 hr 4 min 1 sec) 

ChampSim completed all CPUs

Region of Interest Statistics

CPU 0 cumulative IPC: 0.423552 instructions: 1500000000 cycles: 3541481844
cpu0_DTLB TOTAL     ACCESS:  374927050  HIT:  339794429  MISS:   35132621
cpu0_DTLB LOAD      ACCESS:  333813636  HIT:  302502217  MISS:   31311419
cpu0_DTLB RFO       ACCESS:   41113414  HIT:   37292212  MISS:    3821202
cpu0_DTLB PREFETCH  ACCESS:          0  HIT:          0  MISS:          0
cpu0_DTLB WRITEBACK ACCESS:          0  HIT:          0  MISS:          0
cpu0_DTLB TRANSLATION ACCESS:          0  HIT:          0  MISS:          0
cpu0_DTLB PREFETCH  REQUESTED:          0  ISSUED:          0  USEFUL:          0  USELESS:          0
cpu0_DTLB AVERAGE MISS LATENCY: 10.9458 cycles
cpu0_ITLB TOTAL     ACCESS:  193691759  HIT:  193691759  MISS:          0
cpu0_ITLB LOAD      ACCESS:  193691759  HIT:  193691759  MISS:          0
cpu0_ITLB RFO       ACCESS:          0  HIT:          0  MISS:          0
cpu0_ITLB PREFETCH  ACCESS:          0  HIT:          0  MISS:          0
cpu0_ITLB WRITEBACK ACCESS:          0  HIT:          0  MISS:          0
cpu0_ITLB TRANSLATION ACCESS:          0  HIT:          0  MISS:          0
cpu0_ITLB PREFETCH  REQUESTED:          0  ISSUED:          0  USEFUL:          0  USELESS:          0
cpu0_ITLB AVERAGE MISS LATENCY: -nan cycles
cpu0_L1I TOTAL     ACCESS:      87060  HIT:      87059  MISS:          1
cpu0_L1I LOAD      ACCESS:      87060  HIT:      87059  MISS:          1
cpu0_L1I RFO       ACCESS:          0  HIT:          0  MISS:          0
cpu0_L1I PREFETCH  ACCESS:          0  HIT:          0  MISS:          0
cpu0_L1I WRITEBACK ACCESS:          0  HIT:          0  MISS:          0
cpu0_L1I TRANSLATION ACCESS:          0  HIT:          0  MISS:          0
cpu0_L1I PREFETCH  REQUESTED:          0  ISSUED:          0  USEFUL:          0  USELESS:          0
cpu0_L1I AVERAGE MISS LATENCY: 194 cycles
cpu0_STLB TOTAL     ACCESS:   35132621  HIT:   26527713  MISS:    8604908
cpu0_STLB LOAD      ACCESS:   31311419  HIT:   23794325  MISS:    7517094
cpu0_STLB RFO       ACCESS:    3821202  HIT:    2733388  MISS:    1087814
cpu0_STLB PREFETCH  ACCESS:          0  HIT:          0  MISS:          0
cpu0_STLB WRITEBACK ACCESS:          0  HIT:          0  MISS:          0
cpu0_STLB TRANSLATION ACCESS:          0  HIT:          0  MISS:          0
cpu0_STLB PREFETCH  REQUESTED:          0  ISSUED:          0  USEFUL:          0  USELESS:          0
cpu0_STLB AVERAGE MISS LATENCY: 7.92165 cycles
cpu0_L1D TOTAL     ACCESS:  377223660  HIT:  334371697  MISS:   42851963
cpu0_L1D LOAD      ACCESS:  305350171  HIT:  263069728  MISS:   42280443
cpu0_L1D RFO       ACCESS:   63729379  HIT:   63175795  MISS:     553584
cpu0_L1D PREFETCH  ACCESS:          0  HIT:          0  MISS:          0
cpu0_L1D WRITEBACK ACCESS:          0  HIT:          0  MISS:          0
cpu0_L1D TRANSLATION ACCESS:    8144110  HIT:    8126174  MISS:      17936
cpu0_L1D PREFETCH  REQUESTED:          0  ISSUED:          0  USEFUL:          0  USELESS:          0
cpu0_L1D AVERAGE MISS LATENCY: 33.9928 cycles
cpu0_L2C TOTAL     ACCESS:   56936127  HIT:   39568084  MISS:   17368043
cpu0_L2C LOAD      ACCESS:   42279279  HIT:   25013475  MISS:   17265804
cpu0_L2C RFO       ACCESS:     553555  HIT:     455435  MISS:      98120
cpu0_L2C PREFETCH  ACCESS:          0  HIT:          0  MISS:          0
cpu0_L2C WRITEBACK ACCESS:   14085357  HIT:   14084364  MISS:        993
cpu0_L2C TRANSLATION ACCESS:      17936  HIT:      14810  MISS:       3126
cpu0_L2C PREFETCH  REQUESTED:          0  ISSUED:          0  USEFUL:          0  USELESS:          0
cpu0_L2C AVERAGE MISS LATENCY: 56.68 cycles
LLC TOTAL     ACCESS:   23644039  HIT:   20059660  MISS:    3584379
LLC LOAD      ACCESS:   17264075  HIT:   13688619  MISS:    3575456
LLC RFO       ACCESS:      98116  HIT:      92969  MISS:       5147
LLC PREFETCH  ACCESS:          0  HIT:          0  MISS:          0
LLC WRITEBACK ACCESS:    6278722  HIT:    6275121  MISS:       3601
LLC TRANSLATION ACCESS:       3126  HIT:       2951  MISS:        175
LLC PREFETCH  REQUESTED:          0  ISSUED:          0  USEFUL:          0  USELESS:          0
LLC AVERAGE MISS LATENCY: 172.902 cycles
~~~~~~~~~~Reuse Distance Profiler output~~~~~~~~~~
0	52846400	22581168
1	39025616	34608592
2	47725616	41889312
3	31752640	27515376
4	28448928	23342000
5	25608144	21491248
6	24456016	21392656
7	21026784	18308592
8	18261984	16281616
9	16457552	14854224
10	15294624	13893808
11	14314016	12990688
12	12936656	11661472
13	11798704	10477728
14	10529792	9092464
15	9324672	7981136
16	7846256	6623104
17	6741136	5473440
18	5391952	4342832
19	4325824	3452944
20	3628336	2839456
21	3073344	2441792
22	2559584	2046448
23	2163536	1718304
24	1846848	1465776
25	1563952	1210432
26	1327376	995616
27	1140736	837104
28	1019120	698752
29	880512	597536
30	763392	494480
31	680992	419824
32	592464	358640
33	524560	314864
34	467024	277552
35	413824	249200
36	376672	226288
37	330736	204960
38	304144	187552
39	274576	169952
40	250080	158096
41	229344	145040
42	213776	136544
43	201120	128960
44	186064	119136
45	175200	113056
46	162816	106368
47	154912	101696
48	142208	94992
49	139904	96032
50	130048	89024
51	123488	87040
52	116608	83504
53	110816	82400
54	102032	75920
55	97472	74416
56	92064	69808
57	89024	68000
58	85600	66400
59	82656	64064
60	77600	61776
61	74752	60160
62	70176	56080
63	67984	55552
64	126512	103936
66	118928	100160
68	110112	93632
70	101504	88112
72	96624	84784
74	86176	76832
76	84048	75888
78	78704	71984
80	77312	70528
82	73024	67392
84	69584	64816
86	63744	59344
88	58832	55760
90	58400	55504
92	54704	51648
94	52416	50064
96	49904	47760
98	47936	46256
100	44848	43392
102	40688	39264
104	42592	41536
106	39952	39136
108	37824	36960
110	37008	36096
112	34512	33760
114	33024	32272
116	32976	32272
118	30448	29808
120	29872	29392
122	29200	28688
124	27184	26880
126	26752	26368
128	51584	50720
132	47584	46768
136	43840	43440
140	41936	41472
144	42000	41600
148	39120	38720
152	35760	35488
156	35440	35216
160	33856	33600
164	32192	32032
168	31984	31712
172	28512	28304
176	26976	26880
180	26080	25952
184	24704	24480
188	24048	23920
192	24064	23824
196	22608	22528
200	21120	20944
204	20544	20528
208	19440	19296
212	20016	19936
216	17776	17744
220	17184	17056
224	16640	16544
228	16448	16336
232	15568	15520
236	15232	15120
240	14432	14400
244	14048	14000
248	14880	14848
252	14144	14048
256	26080	26032
264	25600	25536
272	23584	23520
280	23696	23584
288	20960	20816
296	19328	19248
304	19152	19088
312	18144	18080
320	16944	16896
328	16256	16240
336	16464	16432
344	16352	16320
352	13840	13808
360	13792	13760
368	13616	13600
376	12928	12880
384	11808	11792
392	12288	12256
400	12384	12352
408	11744	11680
416	11424	11376
424	10608	10560
432	9760	9744
440	10128	10080
448	9232	9232
456	8208	8192
464	10128	10016
472	8608	8576
480	7952	7888
488	8480	8432
496	7968	7888
504	7872	7776
512	15216	15136
528	13344	13264
544	13776	13696
560	12912	12784
576	12832	12704
592	11632	11488
608	10976	10832
624	10864	10768
640	10384	10336
656	9216	9088
672	8736	8704
688	8848	8656
704	8784	8672
720	7856	7744
736	8032	7856
752	7952	7824
768	7856	7584
784	8288	8000
800	7360	7200
816	7248	7120
832	6736	6592
848	6624	6496
864	7248	7040
880	7504	7216
896	7184	6960
912	8128	7936
928	9344	9168
944	7872	7664
960	7568	7216
976	7072	6976
992	7392	7152
1008	7872	7680
1024	16592	16112
1056	15808	15296
1088	15424	14992
1120	15648	15328
1152	16096	15744
1184	15424	14800
1216	16096	15552
1248	14608	14048
1280	14144	13520
1312	14416	13856
1344	15184	14752
1376	16208	15696
1408	15936	15328
1440	16688	16064
1472	16400	15600
1504	17808	17056
1536	17920	17344
1568	19488	18784
1600	19136	18448
1632	18960	18320
1664	20112	19392
1696	20864	20160
1728	19744	19152
1760	20048	19184
1792	20320	19584
1824	18944	18176
1856	21728	21056
1888	23184	22496
1920	25136	24368
1952	24368	23456
1984	23552	22560
2016	20976	20048
2048	46448	44512
2112	46000	44272
2176	49936	47776
2240	51712	49568
2304	61296	59648
2368	63232	61088
2432	60768	58752
2496	66416	63952
2560	66032	63440
2624	66992	64544
2688	66272	63856
2752	66320	63600
2816	66224	63888
2880	68448	65952
2944	70128	67696
3008	71952	69440
3072	74112	71840
3136	70848	68304
3200	81200	78608
3264	71808	69408
3328	73040	70304
3392	68928	66432
3456	77008	74208
3520	74544	71936
3584	70064	67760
3648	68064	65392
3712	68416	65456
3776	80096	76848
3840	87696	84544
3904	89040	85728
3968	93104	90016
4032	92592	89680
4096	183504	177920
4224	183024	177536
4352	176192	170624
4480	163936	157520
4608	165216	159760
4736	163200	158816
4864	169520	164592
4992	153792	148768
5120	143456	138464
5248	145552	140336
5376	153712	148448
5504	161792	156288
5632	158080	151536
5760	167072	160240
5888	185344	179696
6016	183328	177504
6144	188336	182704
6272	198656	191600
6400	205680	198448
6528	209248	201296
6656	228944	220288
6784	241200	231632
6912	265840	256576
7040	281936	272704
7168	312640	302752
7296	320368	310560
7424	314480	304368
7552	291184	282064
7680	294000	285344
7808	288704	279136
7936	295600	286944
8064	296208	287072
8192	580352	560912
8448	634224	614256
8704	707888	684880
8960	765424	739488
9216	848688	823424
9472	768240	745168
9728	766384	742128
9984	777008	752688
10240	720736	698976
10496	642416	622640
10752	677568	657728
11008	639280	618144
11264	624848	604496
11520	625840	603968
11776	680736	656720
12032	768512	744160
12288	784032	760160
12544	782144	759184
12800	777168	751824
13056	801072	776176
13312	775280	752272
13568	758544	736064
13824	802160	778176
14080	730704	710672
14336	621904	602592
14592	630192	607616
14848	694336	671008
15104	778064	752480
15360	837216	811744
15616	805248	779456
15872	859536	831936
16128	892560	866336
16384	1625648	1575536
16896	1651504	1600416
17408	1599376	1549344
17920	1464672	1420224
18432	1209024	1171440
18944	1168656	1133360
19456	1110128	1075440
19968	1039472	1007712
20480	951968	922048
20992	1051856	1018048
21504	1011296	982816
22016	730288	706208
22528	700112	678208
23040	752512	729136
23552	681760	663472
24064	478384	464528
24576	398928	386352
25088	378128	367280
25600	297200	288016
26112	257520	250160
26624	250896	243952
27136	230032	223664
27648	209264	204896
28160	135248	132160
28672	104112	101008
29184	86784	84640
29696	80336	78752
30208	65728	64496
30720	45088	43168
31232	61520	60048
31744	61648	60608
32256	64224	63200
32768	125872	122032
33792	175584	171520
34816	169616	164528
35840	297728	288272
36864	339296	328272
37888	350400	340464
38912	344544	334128
39936	347168	337312
40960	243424	235600
41984	291584	283568
43008	245808	239840
44032	89072	87568
45056	26112	25808
46080	26224	25792
47104	24784	24480
48128	19744	19440
49152	19376	19024
50176	18768	18352
51200	17584	17216
52224	16400	16288
53248	16288	16112
54272	15632	15408
55296	13280	13088
56320	11168	11056
57344	10016	9936
58368	10608	10368
59392	9840	9696
60416	10176	10032
61440	8896	8704
62464	9296	9136
63488	10432	10144
64512	10240	10048
65536	17216	16848
67584	18272	18080
69632	18976	18672
71680	18640	18416
73728	16208	16032
75776	17840	17616
77824	16032	15808
79872	18064	17760
81920	13552	13456
83968	15136	14832
86016	11776	11632
88064	9168	9072
90112	6976	6880
92160	7136	6976
94208	6624	6496
96256	5648	5472
98304	5440	5344
100352	5280	5136
102400	5040	4880
104448	5184	5056
106496	5296	5184
108544	5520	5456
110592	6128	6000
112640	4640	4448
114688	4944	4848
116736	4304	4144
118784	4752	4640
120832	4480	4400
122880	3280	3168
124928	4256	4080
126976	3328	3280
129024	3232	3168
131072	5456	5312
135168	4976	4784
139264	4608	4448
143360	4368	4272
147456	4720	4544
151552	4432	4368
155648	3776	3648
159744	4016	3936
163840	3648	3536
167936	3328	3200
172032	3056	2976
176128	2624	2512
180224	2288	2240
184320	2384	2320
188416	2512	2432
192512	2448	2368
196608	2016	1952
200704	2224	2160
204800	1744	1680
208896	2048	1952
212992	1936	1872
217088	1632	1616
221184	1568	1504
225280	1280	1168
229376	1632	1568
233472	1280	1152
237568	1312	1232
241664	1536	1456
245760	1344	1280
249856	1120	1008
253952	1232	1216
258048	1056	992
262144	2112	1968
270336	1680	1536
278528	1760	1696
286720	1888	1760
294912	1536	1408
303104	1584	1520
311296	1424	1296
319488	1520	1408
327680	1344	1312
335872	1264	1168
344064	1520	1472
352256	1376	1264
360448	1264	1120
368640	976	880
376832	1264	1200
385024	1152	1088
393216	976	880
401408	928	896
409600	736	736
417792	880	704
425984	832	768
434176	880	800
442368	848	816
450560	736	704
458752	592	544
466944	960	912
475136	736	640
483328	768	688
491520	656	560
499712	672	624
507904	752	656
516096	624	592
524288	1392	1248
540672	1136	1008
557056	1280	1168
573440	1200	1072
589824	1360	1216
606208	1200	1040
622592	1152	1056
638976	912	896
655360	800	736
671744	944	928
688128	1072	992
704512	880	832
720896	1056	1056
737280	784	704
753664	880	832
770048	720	640
786432	656	624
802816	624	624
819200	784	704
835584	784	704
851968	736	704
868352	816	752
884736	1008	960
901120	928	880
917504	1168	1072
933888	848	816
950272	848	800
966656	688	688
983040	800	800
999424	656	624
1015808	912	848
1032192	832	800
1048576	1584	1520
1081344	1632	1568
1114112	1360	1280
1146880	1312	1264
1179648	1456	1360
1212416	1600	1552
1245184	1168	1136
1277952	1280	1152
1310720	1504	1424
1343488	1056	992
1376256	1280	1184
1409024	1216	1200
1441792	1392	1344
1474560	1632	1616
1507328	1408	1376
1540096	1680	1616
1572864	1200	1184
1605632	1264	1248
1638400	1408	1360
1671168	1344	1264
1703936	1360	1280
1736704	1552	1472
1769472	1424	1392
1802240	1648	1632
1835008	1408	1376
1867776	1312	1296
1900544	1520	1488
1933312	1776	1696
1966080	1504	1408
1998848	1472	1440
2031616	1456	1440
2064384	1520	1456
2097152	2672	2560
2162688	2944	2816
2228224	2720	2688
2293760	2624	2544
2359296	2704	2688
2424832	2496	2400
2490368	2224	2128
2555904	2288	2272
2621440	2784	2752
2686976	2672	2656
2752512	2496	2400
2818048	2304	2288
2883584	2448	2400
2949120	2448	2400
3014656	2112	2112
3080192	1792	1760
3145728	2320	2320
3211264	2112	2048
3276800	1984	1936
3342336	2064	2048
3407872	2112	2096
3473408	2160	2144
3538944	2704	2672
3604480	2528	2512
3670016	3008	2992
3735552	3328	3328
3801088	3168	3136
3866624	3072	3040
3932160	3408	3344
3997696	3424	3376
4063232	3376	3344
4128768	3200	3200
4194304	6400	6352
4325376	4928	4896
4456448	5280	5280
4587520	6368	6320
4718592	4768	4736
4849664	4720	4704
4980736	5008	4992
5111808	4992	4960
5242880	6000	5888
5373952	5152	5152
5505024	4960	4944
5636096	5456	5440
5767168	5952	5936
5898240	5712	5696
6029312	5792	5776
6160384	4240	4240
6291456	4016	3968
6422528	4640	4608
6553600	4672	4656
6684672	4048	4016
6815744	4288	4288
6946816	4928	4912
7077888	5248	5248
7208960	5424	5408
7340032	5792	5792
7471104	5136	5136
7602176	6688	6656
7733248	6464	6400
7864320	6400	6400
7995392	5920	5920
8126464	6544	6528
8257536	7360	7344
8388608	16160	16160
8650752	15984	15904
8912896	21088	21088
9175040	21488	21424
9437184	16976	16896
9699328	24656	24608
9961472	31840	31824
10223616	26576	26560
10485760	25296	25248
10747904	35184	35184
11010048	55392	55312
11272192	35888	35856
11534336	28624	28608
11796480	26688	26656
12058624	27984	27984
12320768	26880	26848
12582912	22464	22448
12845056	22048	22048
13107200	18352	18352
13369344	20160	20160
13631488	23040	23040
13893632	28144	28128
14155776	30160	30160
14417920	28448	28448
14680064	28144	28144
14942208	28240	28224
15204352	25024	24896
15466496	26672	26656
15728640	24160	24160
15990784	24688	24688
16252928	24592	24576
16515072	27360	27360
16777216	52240	52240
17301504	57248	57184
17825792	48976	48960
18350080	52160	52160
18874368	46176	46160
19398656	54016	54016
19922944	50272	50256
20447232	62736	62720
20971520	61200	61200
21495808	66848	66848
22020096	58720	58720
22544384	42320	42320
23068672	41472	41472
23592960	44576	44576
24117248	46304	46288
24641536	45152	45136
25165824	54096	54080
25690112	49728	49728
26214400	48096	48096
26738688	51888	51872
27262976	60976	60976
27787264	42080	42080
28311552	34224	34192
28835840	34432	34432
29360128	35024	34992
29884416	30816	30816
30408704	33920	33904
30932992	28624	28624
31457280	30992	30976
31981568	23760	23760
32505856	28976	28976
33030144	32880	32848
33554432	100208	100176
34603008	104304	104304
35651584	77712	77712
36700160	66832	66816
37748736	54528	54512
38797312	51488	51488
39845888	58496	58496
40894464	70656	70640
41943040	62992	62992
42991616	103296	103280
44040192	42752	42720
45088768	92864	92848
46137344	54544	54544
47185920	66096	66064
48234496	67456	67456
49283072	63232	63216
50331648	31568	31552
51380224	27776	27776
52428800	27552	27520
53477376	31360	31360
54525952	34400	34400
55574528	58656	58656
56623104	27200	27200
57671680	28416	28400
58720256	11168	11168
59768832	19328	19328
60817408	57248	57248
61865984	19664	19664
62914560	8624	8624
63963136	10288	10288
65011712	6848	6848
66060288	9104	9104
67108864	12240	12128
69206016	12128	12128
71303168	12144	12144
73400320	21664	21664
75497472	8608	8608
77594624	10448	10448
79691776	37680	37680
81788928	2224	2224
83886080	8720	8720
85983232	10208	10208
88080384	6224	6224
90177536	14848	14848
92274688	15104	15104
94371840	7968	7920
96468992	992	992
98566144	32	0
100663296	16	16
102760448	3888	3888
104857600	480	480
106954752	7536	7536
109051904	864	864
111149056	336	336
113246208	0	0
115343360	16	16
117440512	0	0
119537664	0	0
121634816	112	0
123731968	0	0
125829120	0	0
127926272	0	0
130023424	0	0
132120576	0	0
134217728	0	0
138412032	0	0
142606336	0	0
146800640	112	0
150994944	0	0
155189248	0	0
159383552	0	0
163577856	0	0
167772160	0	0
171966464	0	0
176160768	0	0
180355072	0	0
184549376	0	0
188743680	0	0
192937984	0	0
197132288	0	0
201326592	0	0
205520896	0	0
209715200	0	0
213909504	0	0
218103808	0	0
222298112	128	16
226492416	0	0
230686720	0	0
234881024	0	0
239075328	0	0
243269632	0	0
247463936	0	0
251658240	0	0
255852544	0	0
260046848	80	0
264241152	0	0
268435456	0	0
276824064	0	0
285212672	48	0
293601280	0	0
301989888	0	0
310378496	16	16
318767104	0	0
327155712	0	0
335544320	0	0
343932928	0	0
352321536	0	0
360710144	0	0
369098752	0	0
377487360	0	0
385875968	0	0
394264576	0	0
402653184	0	0
411041792	0	0
419430400	0	0
427819008	0	0
436207616	0	0
444596224	0	0
452984832	0	0
461373440	0	0
469762048	0	0
478150656	0	0
486539264	0	0
494927872	0	0
503316480	0	0
511705088	0	0
520093696	0	0
528482304	0	0
536870912	0	0
553648128	0	0
570425344	0	0
587202560	0	0
603979776	0	0
620756992	0	0
637534208	0	0
654311424	0	0
671088640	0	0
687865856	0	0
704643072	0	0
721420288	0	0
738197504	0	0
754974720	0	0
771751936	0	0
788529152	0	0
805306368	0	0
822083584	0	0
838860800	0	0
855638016	0	0
872415232	0	0
889192448	0	0
905969664	0	0
922746880	0	0
939524096	0	0
956301312	0	0
973078528	0	0
989855744	0	0
1006632960	0	0
1023410176	0	0
1040187392	0	0
1056964608	0	0
1073741824	0	0
1107296256	0	0
1140850688	0	0
1174405120	0	0
1207959552	0	0
1241513984	0	0
1275068416	0	0
1308622848	0	0
1342177280	0	0
1375731712	0	0
1409286144	0	0
1442840576	0	0
1476395008	0	0
1509949440	0	0
1543503872	0	0
1577058304	0	0
1610612736	0	0
1644167168	0	0
1677721600	0	0
1711276032	0	0
1744830464	0	0
1778384896	0	0
1811939328	0	0
1845493760	0	0
1879048192	0	0
1912602624	0	0
1946157056	0	0
1979711488	0	0
2013265920	0	0
2046820352	0	0
2080374784	0	0
2113929216	0	0
2147483648	0	0
2214592512	0	0
2281701376	0	0
2348810240	0	0
2415919104	0	0
2483027968	0	0
2550136832	0	0
2617245696	0	0
2684354560	0	0
2751463424	0	0
2818572288	0	0
2885681152	0	0
2952790016	0	0
3019898880	0	0
3087007744	0	0
3154116608	0	0
3221225472	0	0
3288334336	0	0
3355443200	0	0
3422552064	0	0
3489660928	0	0
3556769792	0	0
3623878656	0	0
3690987520	0	0
3758096384	0	0
3825205248	0	0
3892314112	0	0
3959422976	0	0
4026531840	0	0
4093640704	0	0
4160749568	0	0
4227858432	0	0
~~~~~~~~~~Reuse Distance Profiler output end~~~~~~~~~~

DRAM Statistics
 CHANNEL 0
 RQ ROW_BUFFER_HIT:       7146  ROW_BUFFER_MISS:    3569618
 DBUS AVG_CONGESTED_CYCLE:    3.54317
 WQ ROW_BUFFER_HIT:     114330  ROW_BUFFER_MISS:    2044559  FULL:          0


CPU 0 Branch Prediction Accuracy: 69.4682% MPKI: 57.6713 Average ROB Occupancy at Mispredict: 5.47038
Branch type MPKI
BRANCH_DIRECT_JUMP: 3.33333e-06
BRANCH_INDIRECT: 0
BRANCH_CONDITIONAL: 57.6713
BRANCH_DIRECT_CALL: 0
BRANCH_INDIRECT_CALL: 0
BRANCH_RETURN: 0

