
*** ChampSim Multicore Out-of-Order Simulator ***

Warmup Instructions: 500000000
Simulation Instructions: 1500000000
Number of CPUs: 1
Off-chip DRAM Size: 4 GiB Channels: 1 Width: 64-bit Data Rate: 3200 MT/s

VirtualMemory physical capacity: 8588881920 num_ppages: 2096895
VirtualMemory page size: 4096 log2_page_size: 12

CPU 0 runs traces/481.wrf-1254B.champsimtrace.xz
CPU 0 Bimodal branch predictor
Basic BTB sets: 1024 ways: 8 indirect buffer size: 4096 RAS size: 64
Initializing LRU.
Initializing LRU.
Initializing LRU.
Initializing LRU.
Initializing rdLRU.
Initializing LRU.
Initializing LRU.
Heartbeat CPU 0 instructions: 10000001 cycles: 2596519 heartbeat IPC: 3.85131 cumulative IPC: 3.85131 (Simulation time: 0 hr 1 min 0 sec) 
Heartbeat CPU 0 instructions: 20000003 cycles: 5324727 heartbeat IPC: 3.66541 cumulative IPC: 3.75606 (Simulation time: 0 hr 1 min 52 sec) 
Heartbeat CPU 0 instructions: 30000001 cycles: 8158088 heartbeat IPC: 3.52938 cumulative IPC: 3.67733 (Simulation time: 0 hr 2 min 34 sec) 
Heartbeat CPU 0 instructions: 40000003 cycles: 10994842 heartbeat IPC: 3.52516 cumulative IPC: 3.63807 (Simulation time: 0 hr 3 min 19 sec) 
Heartbeat CPU 0 instructions: 50000002 cycles: 13998185 heartbeat IPC: 3.32962 cumulative IPC: 3.57189 (Simulation time: 0 hr 4 min 28 sec) 
Heartbeat CPU 0 instructions: 60000001 cycles: 16991041 heartbeat IPC: 3.34129 cumulative IPC: 3.53127 (Simulation time: 0 hr 5 min 41 sec) 
Heartbeat CPU 0 instructions: 70000001 cycles: 19929054 heartbeat IPC: 3.40366 cumulative IPC: 3.51246 (Simulation time: 0 hr 6 min 32 sec) 
Heartbeat CPU 0 instructions: 80000001 cycles: 22769878 heartbeat IPC: 3.52011 cumulative IPC: 3.51341 (Simulation time: 0 hr 7 min 27 sec) 
Heartbeat CPU 0 instructions: 90000001 cycles: 25452981 heartbeat IPC: 3.72703 cumulative IPC: 3.53593 (Simulation time: 0 hr 8 min 17 sec) 
Heartbeat CPU 0 instructions: 100000001 cycles: 28040835 heartbeat IPC: 3.86421 cumulative IPC: 3.56623 (Simulation time: 0 hr 9 min 21 sec) 
Heartbeat CPU 0 instructions: 110000003 cycles: 30761246 heartbeat IPC: 3.67592 cumulative IPC: 3.57593 (Simulation time: 0 hr 10 min 17 sec) 
Heartbeat CPU 0 instructions: 120000003 cycles: 33589686 heartbeat IPC: 3.53552 cumulative IPC: 3.57253 (Simulation time: 0 hr 11 min 16 sec) 
Heartbeat CPU 0 instructions: 130000000 cycles: 36423047 heartbeat IPC: 3.52938 cumulative IPC: 3.56917 (Simulation time: 0 hr 12 min 20 sec) 
Heartbeat CPU 0 instructions: 140000003 cycles: 39419605 heartbeat IPC: 3.33716 cumulative IPC: 3.55153 (Simulation time: 0 hr 13 min 22 sec) 
Heartbeat CPU 0 instructions: 150000003 cycles: 42422946 heartbeat IPC: 3.32963 cumulative IPC: 3.53582 (Simulation time: 0 hr 14 min 7 sec) 
Heartbeat CPU 0 instructions: 160000000 cycles: 45361992 heartbeat IPC: 3.40246 cumulative IPC: 3.52718 (Simulation time: 0 hr 14 min 53 sec) 
Heartbeat CPU 0 instructions: 170000000 cycles: 48206601 heartbeat IPC: 3.51542 cumulative IPC: 3.52649 (Simulation time: 0 hr 15 min 39 sec) 
Heartbeat CPU 0 instructions: 180000003 cycles: 50905818 heartbeat IPC: 3.70478 cumulative IPC: 3.53594 (Simulation time: 0 hr 16 min 30 sec) 
Heartbeat CPU 0 instructions: 190000002 cycles: 53485207 heartbeat IPC: 3.87689 cumulative IPC: 3.55238 (Simulation time: 0 hr 17 min 19 sec) 
Heartbeat CPU 0 instructions: 200000001 cycles: 56194971 heartbeat IPC: 3.69036 cumulative IPC: 3.55904 (Simulation time: 0 hr 18 min 7 sec) 
Heartbeat CPU 0 instructions: 210000003 cycles: 59028333 heartbeat IPC: 3.52938 cumulative IPC: 3.55761 (Simulation time: 0 hr 19 min 9 sec) 
Heartbeat CPU 0 instructions: 220000001 cycles: 61861765 heartbeat IPC: 3.52929 cumulative IPC: 3.55632 (Simulation time: 0 hr 19 min 54 sec) 
Heartbeat CPU 0 instructions: 230000001 cycles: 64851469 heartbeat IPC: 3.34481 cumulative IPC: 3.54657 (Simulation time: 0 hr 20 min 48 sec) 
Heartbeat CPU 0 instructions: 240000001 cycles: 67844324 heartbeat IPC: 3.34129 cumulative IPC: 3.53751 (Simulation time: 0 hr 21 min 51 sec) 
Heartbeat CPU 0 instructions: 250000001 cycles: 70798676 heartbeat IPC: 3.38484 cumulative IPC: 3.53114 (Simulation time: 0 hr 23 min 0 sec) 
Heartbeat CPU 0 instructions: 260000000 cycles: 73639968 heartbeat IPC: 3.51953 cumulative IPC: 3.53069 (Simulation time: 0 hr 23 min 58 sec) 
Heartbeat CPU 0 instructions: 270000003 cycles: 76358655 heartbeat IPC: 3.67825 cumulative IPC: 3.53594 (Simulation time: 0 hr 24 min 32 sec) 
Heartbeat CPU 0 instructions: 280000004 cycles: 78929451 heartbeat IPC: 3.88985 cumulative IPC: 3.54747 (Simulation time: 0 hr 25 min 13 sec) 
Heartbeat CPU 0 instructions: 290000003 cycles: 81633628 heartbeat IPC: 3.69798 cumulative IPC: 3.55246 (Simulation time: 0 hr 25 min 58 sec) 
Heartbeat CPU 0 instructions: 300000000 cycles: 84461924 heartbeat IPC: 3.5357 cumulative IPC: 3.5519 (Simulation time: 0 hr 26 min 41 sec) 
Heartbeat CPU 0 instructions: 310000003 cycles: 87293256 heartbeat IPC: 3.53191 cumulative IPC: 3.55125 (Simulation time: 0 hr 27 min 31 sec) 
Heartbeat CPU 0 instructions: 320000003 cycles: 90272847 heartbeat IPC: 3.35617 cumulative IPC: 3.54481 (Simulation time: 0 hr 28 min 10 sec) 
Heartbeat CPU 0 instructions: 330000002 cycles: 93276189 heartbeat IPC: 3.32962 cumulative IPC: 3.53788 (Simulation time: 0 hr 29 min 4 sec) 
Heartbeat CPU 0 instructions: 340000003 cycles: 96234964 heartbeat IPC: 3.37978 cumulative IPC: 3.53302 (Simulation time: 0 hr 30 min 13 sec) 
Heartbeat CPU 0 instructions: 350000001 cycles: 99074585 heartbeat IPC: 3.5216 cumulative IPC: 3.53269 (Simulation time: 0 hr 30 min 57 sec) 
Heartbeat CPU 0 instructions: 360000003 cycles: 101811493 heartbeat IPC: 3.65376 cumulative IPC: 3.53595 (Simulation time: 0 hr 31 min 29 sec) 
Heartbeat CPU 0 instructions: 370000004 cycles: 104373691 heartbeat IPC: 3.9029 cumulative IPC: 3.54495 (Simulation time: 0 hr 32 min 4 sec) 
Heartbeat CPU 0 instructions: 380000000 cycles: 106930569 heartbeat IPC: 3.91102 cumulative IPC: 3.55371 (Simulation time: 0 hr 33 min 3 sec) 
Heartbeat CPU 0 instructions: 390000000 cycles: 109430610 heartbeat IPC: 3.99993 cumulative IPC: 3.5639 (Simulation time: 0 hr 33 min 57 sec) 
Heartbeat CPU 0 instructions: 400000000 cycles: 111930664 heartbeat IPC: 3.99991 cumulative IPC: 3.57364 (Simulation time: 0 hr 34 min 50 sec) 
Heartbeat CPU 0 instructions: 410000000 cycles: 114430684 heartbeat IPC: 3.99997 cumulative IPC: 3.58296 (Simulation time: 0 hr 35 min 39 sec) 
Heartbeat CPU 0 instructions: 420000001 cycles: 116930772 heartbeat IPC: 3.99986 cumulative IPC: 3.59187 (Simulation time: 0 hr 36 min 20 sec) 
Heartbeat CPU 0 instructions: 430000000 cycles: 119430789 heartbeat IPC: 3.99997 cumulative IPC: 3.60041 (Simulation time: 0 hr 37 min 7 sec) 
Heartbeat CPU 0 instructions: 440000001 cycles: 121930858 heartbeat IPC: 3.99989 cumulative IPC: 3.6086 (Simulation time: 0 hr 37 min 50 sec) 
Heartbeat CPU 0 instructions: 450000000 cycles: 124430908 heartbeat IPC: 3.99992 cumulative IPC: 3.61646 (Simulation time: 0 hr 38 min 22 sec) 
Heartbeat CPU 0 instructions: 460000001 cycles: 126931239 heartbeat IPC: 3.99947 cumulative IPC: 3.62401 (Simulation time: 0 hr 39 min 10 sec) 
Heartbeat CPU 0 instructions: 470000003 cycles: 129431257 heartbeat IPC: 3.99997 cumulative IPC: 3.63127 (Simulation time: 0 hr 40 min 3 sec) 
Heartbeat CPU 0 instructions: 480000002 cycles: 131931293 heartbeat IPC: 3.99994 cumulative IPC: 3.63826 (Simulation time: 0 hr 40 min 53 sec) 
Heartbeat CPU 0 instructions: 490000001 cycles: 134431440 heartbeat IPC: 3.99976 cumulative IPC: 3.64498 (Simulation time: 0 hr 41 min 38 sec) 
Heartbeat CPU 0 instructions: 500000003 cycles: 136931509 heartbeat IPC: 3.99989 cumulative IPC: 3.65146 (Simulation time: 0 hr 42 min 25 sec) 

Warmup complete CPU 0 instructions: 500000003 cycles: 136931509 (Simulation time: 0 hr 42 min 25 sec) 

Heartbeat CPU 0 instructions: 510000000 cycles: 147188167 heartbeat IPC: 0.974976 cumulative IPC: 0.974976 (Simulation time: 0 hr 44 min 30 sec) 
Heartbeat CPU 0 instructions: 520000004 cycles: 157421750 heartbeat IPC: 0.977175 cumulative IPC: 0.976074 (Simulation time: 0 hr 46 min 27 sec) 
Heartbeat CPU 0 instructions: 530000002 cycles: 167654315 heartbeat IPC: 0.977272 cumulative IPC: 0.976473 (Simulation time: 0 hr 48 min 7 sec) 
Heartbeat CPU 0 instructions: 540000000 cycles: 177912729 heartbeat IPC: 0.974809 cumulative IPC: 0.976057 (Simulation time: 0 hr 49 min 31 sec) 
Heartbeat CPU 0 instructions: 550000000 cycles: 189327672 heartbeat IPC: 0.876045 cumulative IPC: 0.954268 (Simulation time: 0 hr 51 min 50 sec) 
Heartbeat CPU 0 instructions: 560000002 cycles: 199379939 heartbeat IPC: 0.994801 cumulative IPC: 0.960793 (Simulation time: 0 hr 53 min 16 sec) 
Heartbeat CPU 0 instructions: 570000004 cycles: 209450630 heartbeat IPC: 0.992981 cumulative IPC: 0.965263 (Simulation time: 0 hr 54 min 38 sec) 
Heartbeat CPU 0 instructions: 580000001 cycles: 219526304 heartbeat IPC: 0.992489 cumulative IPC: 0.968584 (Simulation time: 0 hr 56 min 7 sec) 
Heartbeat CPU 0 instructions: 590000002 cycles: 229586919 heartbeat IPC: 0.993975 cumulative IPC: 0.971341 (Simulation time: 0 hr 57 min 27 sec) 
Heartbeat CPU 0 instructions: 600000004 cycles: 239664916 heartbeat IPC: 0.992261 cumulative IPC: 0.973393 (Simulation time: 0 hr 59 min 28 sec) 
Heartbeat CPU 0 instructions: 610000004 cycles: 249726886 heartbeat IPC: 0.993841 cumulative IPC: 0.975217 (Simulation time: 1 hr 1 min 31 sec) 
Heartbeat CPU 0 instructions: 620000003 cycles: 259798234 heartbeat IPC: 0.992916 cumulative IPC: 0.976668 (Simulation time: 1 hr 3 min 43 sec) 
Heartbeat CPU 0 instructions: 630000000 cycles: 269871714 heartbeat IPC: 0.992705 cumulative IPC: 0.977883 (Simulation time: 1 hr 5 min 36 sec) 
Heartbeat CPU 0 instructions: 640000003 cycles: 279930273 heartbeat IPC: 0.994178 cumulative IPC: 0.979029 (Simulation time: 1 hr 7 min 7 sec) 
Heartbeat CPU 0 instructions: 650000001 cycles: 290008953 heartbeat IPC: 0.992193 cumulative IPC: 0.979896 (Simulation time: 1 hr 8 min 22 sec) 
Heartbeat CPU 0 instructions: 660000000 cycles: 300069622 heartbeat IPC: 0.99397 cumulative IPC: 0.980764 (Simulation time: 1 hr 10 min 16 sec) 
Heartbeat CPU 0 instructions: 670000002 cycles: 310143302 heartbeat IPC: 0.992686 cumulative IPC: 0.981457 (Simulation time: 1 hr 12 min 12 sec) 
Heartbeat CPU 0 instructions: 680000003 cycles: 320218586 heartbeat IPC: 0.992528 cumulative IPC: 0.982066 (Simulation time: 1 hr 14 min 7 sec) 
Heartbeat CPU 0 instructions: 690000001 cycles: 330280951 heartbeat IPC: 0.993802 cumulative IPC: 0.982677 (Simulation time: 1 hr 16 min 26 sec) 
Heartbeat CPU 0 instructions: 700000000 cycles: 340359023 heartbeat IPC: 0.992253 cumulative IPC: 0.983151 (Simulation time: 1 hr 18 min 38 sec) 
Heartbeat CPU 0 instructions: 710000003 cycles: 350425317 heartbeat IPC: 0.993415 cumulative IPC: 0.983635 (Simulation time: 1 hr 20 min 36 sec) 
Heartbeat CPU 0 instructions: 720000000 cycles: 360194662 heartbeat IPC: 1.02361 cumulative IPC: 0.985384 (Simulation time: 1 hr 23 min 1 sec) 
Heartbeat CPU 0 instructions: 730000004 cycles: 369596291 heartbeat IPC: 1.06365 cumulative IPC: 0.988547 (Simulation time: 1 hr 25 min 28 sec) 
Heartbeat CPU 0 instructions: 740000001 cycles: 375873668 heartbeat IPC: 1.59302 cumulative IPC: 1.00443 (Simulation time: 1 hr 27 min 22 sec) 
Heartbeat CPU 0 instructions: 750000001 cycles: 382169791 heartbeat IPC: 1.58828 cumulative IPC: 1.01942 (Simulation time: 1 hr 29 min 15 sec) 
Heartbeat CPU 0 instructions: 760000002 cycles: 388451149 heartbeat IPC: 1.59201 cumulative IPC: 1.03372 (Simulation time: 1 hr 30 min 29 sec) 
Heartbeat CPU 0 instructions: 770000000 cycles: 394716857 heartbeat IPC: 1.59599 cumulative IPC: 1.04738 (Simulation time: 1 hr 32 min 7 sec) 
Heartbeat CPU 0 instructions: 780000000 cycles: 400976566 heartbeat IPC: 1.59752 cumulative IPC: 1.06043 (Simulation time: 1 hr 33 min 9 sec) 
Heartbeat CPU 0 instructions: 790000001 cycles: 407268045 heartbeat IPC: 1.58945 cumulative IPC: 1.07274 (Simulation time: 1 hr 34 min 11 sec) 
Heartbeat CPU 0 instructions: 800000004 cycles: 413527054 heartbeat IPC: 1.5977 cumulative IPC: 1.08462 (Simulation time: 1 hr 35 min 14 sec) 
Heartbeat CPU 0 instructions: 810000001 cycles: 419783069 heartbeat IPC: 1.59846 cumulative IPC: 1.09598 (Simulation time: 1 hr 36 min 19 sec) 
Heartbeat CPU 0 instructions: 820000003 cycles: 426080754 heartbeat IPC: 1.58789 cumulative IPC: 1.10669 (Simulation time: 1 hr 37 min 23 sec) 
Heartbeat CPU 0 instructions: 830000003 cycles: 432339966 heartbeat IPC: 1.59765 cumulative IPC: 1.1171 (Simulation time: 1 hr 38 min 29 sec) 
Heartbeat CPU 0 instructions: 840000000 cycles: 438597873 heartbeat IPC: 1.59798 cumulative IPC: 1.12707 (Simulation time: 1 hr 39 min 35 sec) 
Heartbeat CPU 0 instructions: 850000001 cycles: 444886866 heartbeat IPC: 1.59008 cumulative IPC: 1.13653 (Simulation time: 1 hr 40 min 41 sec) 
Heartbeat CPU 0 instructions: 860000003 cycles: 451142511 heartbeat IPC: 1.59856 cumulative IPC: 1.14573 (Simulation time: 1 hr 42 min 25 sec) 
Heartbeat CPU 0 instructions: 870000004 cycles: 457396870 heartbeat IPC: 1.59889 cumulative IPC: 1.15457 (Simulation time: 1 hr 43 min 48 sec) 
Heartbeat CPU 0 instructions: 880000000 cycles: 463680851 heartbeat IPC: 1.59135 cumulative IPC: 1.16297 (Simulation time: 1 hr 45 min 21 sec) 
Heartbeat CPU 0 instructions: 890000001 cycles: 469932054 heartbeat IPC: 1.59969 cumulative IPC: 1.17117 (Simulation time: 1 hr 46 min 46 sec) 
Heartbeat CPU 0 instructions: 900000000 cycles: 476184226 heartbeat IPC: 1.59944 cumulative IPC: 1.17906 (Simulation time: 1 hr 48 min 16 sec) 
Heartbeat CPU 0 instructions: 910000001 cycles: 482431992 heartbeat IPC: 1.60057 cumulative IPC: 1.18668 (Simulation time: 1 hr 49 min 58 sec) 
Heartbeat CPU 0 instructions: 920000000 cycles: 488712569 heartbeat IPC: 1.59221 cumulative IPC: 1.19392 (Simulation time: 1 hr 51 min 51 sec) 
Heartbeat CPU 0 instructions: 930000001 cycles: 494961423 heartbeat IPC: 1.60029 cumulative IPC: 1.20102 (Simulation time: 1 hr 53 min 43 sec) 
Heartbeat CPU 0 instructions: 940000002 cycles: 501205931 heartbeat IPC: 1.60141 cumulative IPC: 1.20788 (Simulation time: 1 hr 55 min 33 sec) 
Heartbeat CPU 0 instructions: 950000004 cycles: 507485696 heartbeat IPC: 1.59242 cumulative IPC: 1.2144 (Simulation time: 1 hr 56 min 36 sec) 
Heartbeat CPU 0 instructions: 960000004 cycles: 513742063 heartbeat IPC: 1.59837 cumulative IPC: 1.22077 (Simulation time: 1 hr 57 min 38 sec) 
Heartbeat CPU 0 instructions: 970000003 cycles: 520000991 heartbeat IPC: 1.59772 cumulative IPC: 1.22693 (Simulation time: 1 hr 58 min 40 sec) 
Heartbeat CPU 0 instructions: 980000001 cycles: 526290611 heartbeat IPC: 1.58992 cumulative IPC: 1.2328 (Simulation time: 1 hr 59 min 42 sec) 
Heartbeat CPU 0 instructions: 990000000 cycles: 532562020 heartbeat IPC: 1.59454 cumulative IPC: 1.23853 (Simulation time: 2 hr 0 min 44 sec) 
Heartbeat CPU 0 instructions: 1000000002 cycles: 538831219 heartbeat IPC: 1.5951 cumulative IPC: 1.24409 (Simulation time: 2 hr 1 min 45 sec) 
Heartbeat CPU 0 instructions: 1010000003 cycles: 545135214 heartbeat IPC: 1.5863 cumulative IPC: 1.24938 (Simulation time: 2 hr 2 min 47 sec) 
Heartbeat CPU 0 instructions: 1020000001 cycles: 551407480 heartbeat IPC: 1.59432 cumulative IPC: 1.2546 (Simulation time: 2 hr 3 min 49 sec) 
Heartbeat CPU 0 instructions: 1030000002 cycles: 557679981 heartbeat IPC: 1.59426 cumulative IPC: 1.25966 (Simulation time: 2 hr 5 min 4 sec) 
Heartbeat CPU 0 instructions: 1040000003 cycles: 563943000 heartbeat IPC: 1.59667 cumulative IPC: 1.2646 (Simulation time: 2 hr 6 min 49 sec) 
Heartbeat CPU 0 instructions: 1050000000 cycles: 570243825 heartbeat IPC: 1.58709 cumulative IPC: 1.26929 (Simulation time: 2 hr 8 min 1 sec) 
Heartbeat CPU 0 instructions: 1060000000 cycles: 576507095 heartbeat IPC: 1.59661 cumulative IPC: 1.27396 (Simulation time: 2 hr 9 min 20 sec) 
Heartbeat CPU 0 instructions: 1070000000 cycles: 582787577 heartbeat IPC: 1.59223 cumulative IPC: 1.27844 (Simulation time: 2 hr 10 min 21 sec) 
Heartbeat CPU 0 instructions: 1080000004 cycles: 589092768 heartbeat IPC: 1.586 cumulative IPC: 1.28273 (Simulation time: 2 hr 11 min 24 sec) 
Heartbeat CPU 0 instructions: 1090000002 cycles: 595362381 heartbeat IPC: 1.59499 cumulative IPC: 1.287 (Simulation time: 2 hr 12 min 49 sec) 
Heartbeat CPU 0 instructions: 1100000003 cycles: 601641479 heartbeat IPC: 1.59259 cumulative IPC: 1.29113 (Simulation time: 2 hr 13 min 54 sec) 
Heartbeat CPU 0 instructions: 1110000000 cycles: 607937517 heartbeat IPC: 1.5883 cumulative IPC: 1.2951 (Simulation time: 2 hr 14 min 58 sec) 
Heartbeat CPU 0 instructions: 1120000003 cycles: 614202770 heartbeat IPC: 1.59611 cumulative IPC: 1.29905 (Simulation time: 2 hr 16 min 7 sec) 
Heartbeat CPU 0 instructions: 1130000000 cycles: 620476851 heartbeat IPC: 1.59386 cumulative IPC: 1.30288 (Simulation time: 2 hr 17 min 20 sec) 
Heartbeat CPU 0 instructions: 1140000003 cycles: 626785211 heartbeat IPC: 1.5852 cumulative IPC: 1.30651 (Simulation time: 2 hr 18 min 24 sec) 
Heartbeat CPU 0 instructions: 1150000002 cycles: 633055027 heartbeat IPC: 1.59494 cumulative IPC: 1.31016 (Simulation time: 2 hr 19 min 29 sec) 
Heartbeat CPU 0 instructions: 1160000001 cycles: 639330725 heartbeat IPC: 1.59345 cumulative IPC: 1.3137 (Simulation time: 2 hr 20 min 37 sec) 
Heartbeat CPU 0 instructions: 1170000002 cycles: 645641885 heartbeat IPC: 1.58449 cumulative IPC: 1.31706 (Simulation time: 2 hr 21 min 38 sec) 
Heartbeat CPU 0 instructions: 1180000002 cycles: 651913970 heartbeat IPC: 1.59437 cumulative IPC: 1.32043 (Simulation time: 2 hr 22 min 40 sec) 
Heartbeat CPU 0 instructions: 1190000004 cycles: 658195365 heartbeat IPC: 1.592 cumulative IPC: 1.32371 (Simulation time: 2 hr 23 min 42 sec) 
Heartbeat CPU 0 instructions: 1200000002 cycles: 664479752 heartbeat IPC: 1.59124 cumulative IPC: 1.32689 (Simulation time: 2 hr 24 min 44 sec) 
Heartbeat CPU 0 instructions: 1210000004 cycles: 670775709 heartbeat IPC: 1.58832 cumulative IPC: 1.32998 (Simulation time: 2 hr 25 min 45 sec) 
Heartbeat CPU 0 instructions: 1220000001 cycles: 677050443 heartbeat IPC: 1.59369 cumulative IPC: 1.33304 (Simulation time: 2 hr 26 min 47 sec) 
Heartbeat CPU 0 instructions: 1230000000 cycles: 683336533 heartbeat IPC: 1.59081 cumulative IPC: 1.33601 (Simulation time: 2 hr 27 min 48 sec) 
Heartbeat CPU 0 instructions: 1240000001 cycles: 689640097 heartbeat IPC: 1.5864 cumulative IPC: 1.33886 (Simulation time: 2 hr 28 min 52 sec) 
Heartbeat CPU 0 instructions: 1250000002 cycles: 695907092 heartbeat IPC: 1.59566 cumulative IPC: 1.34174 (Simulation time: 2 hr 30 min 5 sec) 
Heartbeat CPU 0 instructions: 1260000002 cycles: 702177265 heartbeat IPC: 1.59485 cumulative IPC: 1.34455 (Simulation time: 2 hr 31 min 11 sec) 
Heartbeat CPU 0 instructions: 1270000004 cycles: 708465927 heartbeat IPC: 1.59016 cumulative IPC: 1.34725 (Simulation time: 2 hr 32 min 18 sec) 
Heartbeat CPU 0 instructions: 1280000004 cycles: 714734025 heartbeat IPC: 1.59538 cumulative IPC: 1.34994 (Simulation time: 2 hr 33 min 24 sec) 
Heartbeat CPU 0 instructions: 1290000003 cycles: 721004943 heartbeat IPC: 1.59466 cumulative IPC: 1.35257 (Simulation time: 2 hr 34 min 27 sec) 
Heartbeat CPU 0 instructions: 1300000001 cycles: 727299120 heartbeat IPC: 1.58877 cumulative IPC: 1.35509 (Simulation time: 2 hr 35 min 32 sec) 
Heartbeat CPU 0 instructions: 1310000000 cycles: 733565141 heartbeat IPC: 1.59591 cumulative IPC: 1.35762 (Simulation time: 2 hr 36 min 39 sec) 
Heartbeat CPU 0 instructions: 1320000004 cycles: 739834841 heartbeat IPC: 1.59497 cumulative IPC: 1.36009 (Simulation time: 2 hr 37 min 45 sec) 
Heartbeat CPU 0 instructions: 1330000002 cycles: 746097704 heartbeat IPC: 1.59671 cumulative IPC: 1.36252 (Simulation time: 2 hr 38 min 58 sec) 
Heartbeat CPU 0 instructions: 1340000002 cycles: 752389937 heartbeat IPC: 1.58926 cumulative IPC: 1.36484 (Simulation time: 2 hr 40 min 29 sec) 
Heartbeat CPU 0 instructions: 1350000001 cycles: 758648584 heartbeat IPC: 1.59779 cumulative IPC: 1.36718 (Simulation time: 2 hr 41 min 31 sec) 
Heartbeat CPU 0 instructions: 1360000000 cycles: 764917101 heartbeat IPC: 1.59527 cumulative IPC: 1.36946 (Simulation time: 2 hr 42 min 33 sec) 
Heartbeat CPU 0 instructions: 1370000000 cycles: 771203754 heartbeat IPC: 1.59067 cumulative IPC: 1.37165 (Simulation time: 2 hr 43 min 34 sec) 
Heartbeat CPU 0 instructions: 1380000004 cycles: 777468556 heartbeat IPC: 1.59622 cumulative IPC: 1.37385 (Simulation time: 2 hr 44 min 36 sec) 
Heartbeat CPU 0 instructions: 1390000001 cycles: 783734728 heartbeat IPC: 1.59587 cumulative IPC: 1.376 (Simulation time: 2 hr 45 min 38 sec) 
Heartbeat CPU 0 instructions: 1400000001 cycles: 790030118 heartbeat IPC: 1.58846 cumulative IPC: 1.37805 (Simulation time: 2 hr 46 min 40 sec) 
Heartbeat CPU 0 instructions: 1410000003 cycles: 796297037 heartbeat IPC: 1.59568 cumulative IPC: 1.38011 (Simulation time: 2 hr 47 min 42 sec) 
Heartbeat CPU 0 instructions: 1420000000 cycles: 802560830 heartbeat IPC: 1.59648 cumulative IPC: 1.38215 (Simulation time: 2 hr 48 min 44 sec) 
Heartbeat CPU 0 instructions: 1430000004 cycles: 808903281 heartbeat IPC: 1.57668 cumulative IPC: 1.38399 (Simulation time: 2 hr 49 min 47 sec) 
Heartbeat CPU 0 instructions: 1440000003 cycles: 815180454 heartbeat IPC: 1.59307 cumulative IPC: 1.38592 (Simulation time: 2 hr 50 min 50 sec) 
Heartbeat CPU 0 instructions: 1450000003 cycles: 821454944 heartbeat IPC: 1.59376 cumulative IPC: 1.38783 (Simulation time: 2 hr 51 min 54 sec) 
Heartbeat CPU 0 instructions: 1460000001 cycles: 827751715 heartbeat IPC: 1.58812 cumulative IPC: 1.38965 (Simulation time: 2 hr 52 min 56 sec) 
Heartbeat CPU 0 instructions: 1470000004 cycles: 834138626 heartbeat IPC: 1.5657 cumulative IPC: 1.39127 (Simulation time: 2 hr 53 min 59 sec) 
Heartbeat CPU 0 instructions: 1480000002 cycles: 840482249 heartbeat IPC: 1.57639 cumulative IPC: 1.39293 (Simulation time: 2 hr 55 min 1 sec) 
Heartbeat CPU 0 instructions: 1490000002 cycles: 846815866 heartbeat IPC: 1.57888 cumulative IPC: 1.39459 (Simulation time: 2 hr 56 min 4 sec) 
Heartbeat CPU 0 instructions: 1500000000 cycles: 853182835 heartbeat IPC: 1.57061 cumulative IPC: 1.39616 (Simulation time: 2 hr 57 min 6 sec) 
Heartbeat CPU 0 instructions: 1510000003 cycles: 859480687 heartbeat IPC: 1.58784 cumulative IPC: 1.39783 (Simulation time: 2 hr 58 min 7 sec) 
Heartbeat CPU 0 instructions: 1520000001 cycles: 865770987 heartbeat IPC: 1.58975 cumulative IPC: 1.39949 (Simulation time: 2 hr 59 min 8 sec) 
Heartbeat CPU 0 instructions: 1530000001 cycles: 872090889 heartbeat IPC: 1.5823 cumulative IPC: 1.40106 (Simulation time: 3 hr 0 min 10 sec) 
Heartbeat CPU 0 instructions: 1540000002 cycles: 878362636 heartbeat IPC: 1.59445 cumulative IPC: 1.40269 (Simulation time: 3 hr 1 min 11 sec) 
Heartbeat CPU 0 instructions: 1550000003 cycles: 884654576 heartbeat IPC: 1.58934 cumulative IPC: 1.40426 (Simulation time: 3 hr 2 min 12 sec) 
Heartbeat CPU 0 instructions: 1560000002 cycles: 890929343 heartbeat IPC: 1.59368 cumulative IPC: 1.40584 (Simulation time: 3 hr 3 min 14 sec) 
Heartbeat CPU 0 instructions: 1570000000 cycles: 897230207 heartbeat IPC: 1.58708 cumulative IPC: 1.40734 (Simulation time: 3 hr 4 min 15 sec) 
Heartbeat CPU 0 instructions: 1580000004 cycles: 903505458 heartbeat IPC: 1.59356 cumulative IPC: 1.40887 (Simulation time: 3 hr 5 min 17 sec) 
Heartbeat CPU 0 instructions: 1590000000 cycles: 909780183 heartbeat IPC: 1.59369 cumulative IPC: 1.41037 (Simulation time: 3 hr 6 min 19 sec) 
Heartbeat CPU 0 instructions: 1600000002 cycles: 916084170 heartbeat IPC: 1.5863 cumulative IPC: 1.41179 (Simulation time: 3 hr 7 min 21 sec) 
Heartbeat CPU 0 instructions: 1610000000 cycles: 922362583 heartbeat IPC: 1.59276 cumulative IPC: 1.41324 (Simulation time: 3 hr 8 min 23 sec) 
Heartbeat CPU 0 instructions: 1620000003 cycles: 928635054 heartbeat IPC: 1.59427 cumulative IPC: 1.41467 (Simulation time: 3 hr 9 min 25 sec) 
Heartbeat CPU 0 instructions: 1630000000 cycles: 934948936 heartbeat IPC: 1.58381 cumulative IPC: 1.41601 (Simulation time: 3 hr 10 min 26 sec) 
Heartbeat CPU 0 instructions: 1640000002 cycles: 941226168 heartbeat IPC: 1.59306 cumulative IPC: 1.41739 (Simulation time: 3 hr 11 min 28 sec) 
Heartbeat CPU 0 instructions: 1650000000 cycles: 947496366 heartbeat IPC: 1.59485 cumulative IPC: 1.41876 (Simulation time: 3 hr 12 min 29 sec) 
Heartbeat CPU 0 instructions: 1660000002 cycles: 954244703 heartbeat IPC: 1.48185 cumulative IPC: 1.41928 (Simulation time: 3 hr 13 min 34 sec) 
Heartbeat CPU 0 instructions: 1670000004 cycles: 968132558 heartbeat IPC: 0.720054 cumulative IPC: 1.4076 (Simulation time: 3 hr 15 min 23 sec) 
Heartbeat CPU 0 instructions: 1680000000 cycles: 978368806 heartbeat IPC: 0.97692 cumulative IPC: 1.40236 (Simulation time: 3 hr 16 min 37 sec) 
Heartbeat CPU 0 instructions: 1690000001 cycles: 988588575 heartbeat IPC: 0.978496 cumulative IPC: 1.39728 (Simulation time: 3 hr 17 min 51 sec) 
Heartbeat CPU 0 instructions: 1700000004 cycles: 998830002 heartbeat IPC: 0.976427 cumulative IPC: 1.39228 (Simulation time: 3 hr 19 min 5 sec) 
Heartbeat CPU 0 instructions: 1710000002 cycles: 1009043513 heartbeat IPC: 0.979095 cumulative IPC: 1.38744 (Simulation time: 3 hr 20 min 19 sec) 
Heartbeat CPU 0 instructions: 1720000001 cycles: 1019286283 heartbeat IPC: 0.976298 cumulative IPC: 1.38266 (Simulation time: 3 hr 21 min 33 sec) 
Heartbeat CPU 0 instructions: 1730000000 cycles: 1029500504 heartbeat IPC: 0.979027 cumulative IPC: 1.37804 (Simulation time: 3 hr 22 min 47 sec) 
Heartbeat CPU 0 instructions: 1740000000 cycles: 1039739519 heartbeat IPC: 0.976656 cumulative IPC: 1.37349 (Simulation time: 3 hr 24 min 1 sec) 
Heartbeat CPU 0 instructions: 1750000000 cycles: 1049960437 heartbeat IPC: 0.978386 cumulative IPC: 1.36907 (Simulation time: 3 hr 25 min 16 sec) 
Heartbeat CPU 0 instructions: 1760000000 cycles: 1060195923 heartbeat IPC: 0.976993 cumulative IPC: 1.36472 (Simulation time: 3 hr 26 min 29 sec) 
Heartbeat CPU 0 instructions: 1770000001 cycles: 1070419640 heartbeat IPC: 0.978118 cumulative IPC: 1.36049 (Simulation time: 3 hr 27 min 43 sec) 
Heartbeat CPU 0 instructions: 1780000000 cycles: 1080649744 heartbeat IPC: 0.977507 cumulative IPC: 1.35634 (Simulation time: 3 hr 28 min 59 sec) 
Heartbeat CPU 0 instructions: 1790000000 cycles: 1090881415 heartbeat IPC: 0.977357 cumulative IPC: 1.35227 (Simulation time: 3 hr 30 min 12 sec) 
Heartbeat CPU 0 instructions: 1800000000 cycles: 1101105412 heartbeat IPC: 0.978091 cumulative IPC: 1.3483 (Simulation time: 3 hr 31 min 26 sec) 
Heartbeat CPU 0 instructions: 1810000000 cycles: 1111341214 heartbeat IPC: 0.976963 cumulative IPC: 1.3444 (Simulation time: 3 hr 32 min 40 sec) 
Heartbeat CPU 0 instructions: 1820000004 cycles: 1121554025 heartbeat IPC: 0.979163 cumulative IPC: 1.34062 (Simulation time: 3 hr 33 min 59 sec) 
Heartbeat CPU 0 instructions: 1830000002 cycles: 1133617044 heartbeat IPC: 0.82898 cumulative IPC: 1.33442 (Simulation time: 3 hr 35 min 24 sec) 
Heartbeat CPU 0 instructions: 1840000000 cycles: 1145199210 heartbeat IPC: 0.863396 cumulative IPC: 1.32901 (Simulation time: 3 hr 36 min 53 sec) 
Heartbeat CPU 0 instructions: 1850000001 cycles: 1154882640 heartbeat IPC: 1.03269 cumulative IPC: 1.32619 (Simulation time: 3 hr 38 min 16 sec) 
Heartbeat CPU 0 instructions: 1860000004 cycles: 1160111385 heartbeat IPC: 1.91251 cumulative IPC: 1.32919 (Simulation time: 3 hr 39 min 12 sec) 
Heartbeat CPU 0 instructions: 1870000003 cycles: 1165314022 heartbeat IPC: 1.9221 cumulative IPC: 1.33219 (Simulation time: 3 hr 40 min 10 sec) 
Heartbeat CPU 0 instructions: 1880000001 cycles: 1178264610 heartbeat IPC: 0.772166 cumulative IPC: 1.32522 (Simulation time: 3 hr 41 min 42 sec) 
Heartbeat CPU 0 instructions: 1890000001 cycles: 1196206732 heartbeat IPC: 0.557348 cumulative IPC: 1.31222 (Simulation time: 3 hr 43 min 35 sec) 
Heartbeat CPU 0 instructions: 1900000002 cycles: 1214123923 heartbeat IPC: 0.558123 cumulative IPC: 1.29967 (Simulation time: 3 hr 45 min 29 sec) 
Heartbeat CPU 0 instructions: 1910000004 cycles: 1232464990 heartbeat IPC: 0.545225 cumulative IPC: 1.28704 (Simulation time: 3 hr 47 min 24 sec) 
Heartbeat CPU 0 instructions: 1920000000 cycles: 1250630363 heartbeat IPC: 0.550498 cumulative IPC: 1.27503 (Simulation time: 3 hr 49 min 16 sec) 
Heartbeat CPU 0 instructions: 1930000000 cycles: 1268795756 heartbeat IPC: 0.550497 cumulative IPC: 1.2634 (Simulation time: 3 hr 51 min 8 sec) 
Heartbeat CPU 0 instructions: 1940000000 cycles: 1287049164 heartbeat IPC: 0.547843 cumulative IPC: 1.25205 (Simulation time: 3 hr 53 min 0 sec) 
Heartbeat CPU 0 instructions: 1950000002 cycles: 1305365992 heartbeat IPC: 0.545946 cumulative IPC: 1.24098 (Simulation time: 3 hr 54 min 52 sec) 
Heartbeat CPU 0 instructions: 1960000004 cycles: 1323691321 heartbeat IPC: 0.545693 cumulative IPC: 1.23024 (Simulation time: 3 hr 56 min 44 sec) 
Heartbeat CPU 0 instructions: 1970000001 cycles: 1339425154 heartbeat IPC: 0.635573 cumulative IPC: 1.22246 (Simulation time: 3 hr 58 min 35 sec) 
Heartbeat CPU 0 instructions: 1980000002 cycles: 1352673055 heartbeat IPC: 0.754837 cumulative IPC: 1.21736 (Simulation time: 4 hr 0 min 20 sec) 
Heartbeat CPU 0 instructions: 1990000004 cycles: 1361202979 heartbeat IPC: 1.17234 cumulative IPC: 1.21705 (Simulation time: 4 hr 1 min 30 sec) 
*** Reached end of trace: traces/481.wrf-1254B.champsimtrace.xz
Heartbeat CPU 0 instructions: 2000000002 cycles: 1369735154 heartbeat IPC: 1.17203 cumulative IPC: 1.21674 (Simulation time: 4 hr 2 min 40 sec) 
Finished CPU 0 instructions: 1500000003 cycles: 1232804803 cumulative IPC: 1.21674 (Simulation time: 4 hr 2 min 40 sec) 

ChampSim completed all CPUs

Region of Interest Statistics

CPU 0 cumulative IPC: 1.21674 instructions: 1500000003 cycles: 1232804803
cpu0_DTLB TOTAL     ACCESS:  306381208  HIT:  304844582  MISS:    1536626
cpu0_DTLB LOAD      ACCESS:  204751263  HIT:  203735039  MISS:    1016224
cpu0_DTLB RFO       ACCESS:  101629945  HIT:  101109543  MISS:     520402
cpu0_DTLB PREFETCH  ACCESS:          0  HIT:          0  MISS:          0
cpu0_DTLB WRITEBACK ACCESS:          0  HIT:          0  MISS:          0
cpu0_DTLB TRANSLATION ACCESS:          0  HIT:          0  MISS:          0
cpu0_DTLB PREFETCH  REQUESTED:          0  ISSUED:          0  USEFUL:          0  USELESS:          0
cpu0_DTLB AVERAGE MISS LATENCY: 16.6838 cycles
cpu0_ITLB TOTAL     ACCESS:   70794115  HIT:   70793876  MISS:        239
cpu0_ITLB LOAD      ACCESS:   70794115  HIT:   70793876  MISS:        239
cpu0_ITLB RFO       ACCESS:          0  HIT:          0  MISS:          0
cpu0_ITLB PREFETCH  ACCESS:          0  HIT:          0  MISS:          0
cpu0_ITLB WRITEBACK ACCESS:          0  HIT:          0  MISS:          0
cpu0_ITLB TRANSLATION ACCESS:          0  HIT:          0  MISS:          0
cpu0_ITLB PREFETCH  REQUESTED:          0  ISSUED:          0  USEFUL:          0  USELESS:          0
cpu0_ITLB AVERAGE MISS LATENCY: 150.414 cycles
cpu0_L1I TOTAL     ACCESS:  141460879  HIT:  140253129  MISS:    1207750
cpu0_L1I LOAD      ACCESS:  141460879  HIT:  140253129  MISS:    1207750
cpu0_L1I RFO       ACCESS:          0  HIT:          0  MISS:          0
cpu0_L1I PREFETCH  ACCESS:          0  HIT:          0  MISS:          0
cpu0_L1I WRITEBACK ACCESS:          0  HIT:          0  MISS:          0
cpu0_L1I TRANSLATION ACCESS:          0  HIT:          0  MISS:          0
cpu0_L1I PREFETCH  REQUESTED:          0  ISSUED:          0  USEFUL:          0  USELESS:          0
cpu0_L1I AVERAGE MISS LATENCY: 12.0434 cycles
cpu0_STLB TOTAL     ACCESS:    1536865  HIT:    1482699  MISS:      54166
cpu0_STLB LOAD      ACCESS:    1016463  HIT:     976636  MISS:      39827
cpu0_STLB RFO       ACCESS:     520402  HIT:     506063  MISS:      14339
cpu0_STLB PREFETCH  ACCESS:          0  HIT:          0  MISS:          0
cpu0_STLB WRITEBACK ACCESS:          0  HIT:          0  MISS:          0
cpu0_STLB TRANSLATION ACCESS:          0  HIT:          0  MISS:          0
cpu0_STLB PREFETCH  REQUESTED:          0  ISSUED:          0  USEFUL:          0  USELESS:          0
cpu0_STLB AVERAGE MISS LATENCY: 217.129 cycles
cpu0_L1D TOTAL     ACCESS:  423160072  HIT:  417466287  MISS:    5693785
cpu0_L1D LOAD      ACCESS:  238948215  HIT:  234870724  MISS:    4077491
cpu0_L1D RFO       ACCESS:  184162656  HIT:  182550136  MISS:    1612520
cpu0_L1D PREFETCH  ACCESS:          0  HIT:          0  MISS:          0
cpu0_L1D WRITEBACK ACCESS:          0  HIT:          0  MISS:          0
cpu0_L1D TRANSLATION ACCESS:      49201  HIT:      45427  MISS:       3774
cpu0_L1D PREFETCH  REQUESTED:          0  ISSUED:          0  USEFUL:          0  USELESS:          0
cpu0_L1D AVERAGE MISS LATENCY: 190.189 cycles
cpu0_L2C TOTAL     ACCESS:    9003483  HIT:    6002098  MISS:    3001385
cpu0_L2C LOAD      ACCESS:    5285233  HIT:    3188190  MISS:    2097043
cpu0_L2C RFO       ACCESS:    1611917  HIT:     709500  MISS:     902417
cpu0_L2C PREFETCH  ACCESS:          0  HIT:          0  MISS:          0
cpu0_L2C WRITEBACK ACCESS:    2102559  HIT:    2100874  MISS:       1685
cpu0_L2C TRANSLATION ACCESS:       3774  HIT:       3534  MISS:        240
cpu0_L2C PREFETCH  REQUESTED:          0  ISSUED:          0  USEFUL:          0  USELESS:          0
cpu0_L2C AVERAGE MISS LATENCY: 340.31 cycles
LLC TOTAL     ACCESS:    4342106  HIT:    1351168  MISS:    2990938
LLC LOAD      ACCESS:    2097042  HIT:       9302  MISS:    2087740
LLC RFO       ACCESS:     902417  HIT:        648  MISS:     901769
LLC PREFETCH  ACCESS:          0  HIT:          0  MISS:          0
LLC WRITEBACK ACCESS:    1342407  HIT:    1341112  MISS:       1295
LLC TRANSLATION ACCESS:        240  HIT:        106  MISS:        134
LLC PREFETCH  REQUESTED:          0  ISSUED:          0  USEFUL:          0  USELESS:          0
LLC AVERAGE MISS LATENCY: 320.437 cycles
~~~~~~~~~~Reuse Distance Profiler output~~~~~~~~~~
0	82282960	15124528
1	25772976	12042704
2	28800512	16460912
3	28518208	18339232
4	23810560	18214832
5	27013632	21030496
6	23462048	20641392
7	18940000	15140976
8	21750752	17950880
9	9940560	7986640
10	6929184	5380144
11	7328416	6634816
12	9106848	7252800
13	4843952	4150624
14	5139280	4853504
15	4507296	3964976
16	4559488	3998672
17	2555648	2190064
18	3145760	2792928
19	4328016	3909568
20	2182672	1948416
21	2710832	1951808
22	4008480	2713024
23	2721792	2166480
24	3099776	2121280
25	2462288	1582864
26	3293712	1556896
27	3231296	1947952
28	2908640	1620048
29	2196784	938240
30	2239408	1360656
31	1954672	731248
32	4035840	2867024
33	2925936	1494032
34	10005776	2995040
35	2429648	1408752
36	3735536	2222912
37	2302944	1318160
38	2002272	810928
39	2460656	1177136
40	3137872	1136528
41	3032736	1421056
42	3225440	1821376
43	4840352	2539584
44	3177568	1662528
45	2740784	1831968
46	1456352	880976
47	1376208	581328
48	1985648	913440
49	7555824	1066368
50	2159200	1100528
51	1368560	929328
52	994352	799936
53	889392	714224
54	983424	778960
55	1285712	1046480
56	746480	666064
57	969600	818752
58	805216	635232
59	919232	700736
60	668768	551920
61	1016448	822208
62	666272	469760
63	733360	436720
64	1119360	718192
66	2157760	1489248
68	5102528	3664272
70	4230864	2608880
72	2469648	1270768
74	2136320	1404176
76	5084032	3591504
78	1483552	1230032
80	5954352	5255584
82	1475200	1236912
84	1040496	825520
86	3449312	2869120
88	4761296	3858512
90	1002816	827024
92	783392	300672
94	348784	279488
96	254032	190144
98	283632	209632
100	450752	381408
102	303632	244416
104	272096	199696
106	384352	320096
108	362736	248592
110	262592	183776
112	437120	277088
114	252896	193168
116	208192	173168
118	221456	175856
120	328176	250896
122	481456	426432
124	315488	284576
126	419520	364640
128	646416	530192
132	394080	344512
136	339040	244912
140	453824	374432
144	379648	299008
148	411248	328592
152	559456	468272
156	948272	494672
160	1650288	706464
164	685024	321456
168	247888	150880
172	362096	257776
176	269616	204816
180	222944	166928
184	221728	176224
188	301264	253696
192	185536	151040
196	177104	150880
200	181280	176320
204	192848	177360
208	137472	135728
212	150880	125008
216	255808	177824
220	152960	74752
224	211200	83536
228	155248	85424
232	384256	138768
236	570624	182112
240	494800	138688
244	830800	160640
248	337712	97536
252	213872	57312
256	127936	75904
264	53904	43056
272	44672	43456
280	43440	43360
288	108784	108784
296	157472	157328
304	64192	63984
312	69616	54736
320	61936	61584
328	52960	52496
336	62432	60992
344	10112	7776
352	4896	4320
360	14752	14400
368	10880	10576
376	3152	1312
384	13776	5824
392	2032	1840
400	19152	18880
408	42496	42288
416	33216	33104
424	9504	9312
432	2464	1200
440	720	304
448	2144	992
456	2976	2224
464	22768	20480
472	21296	14848
480	32384	25328
488	25200	16752
496	9184	7680
504	14640	4832
512	30480	10448
528	38272	26976
544	132800	130896
560	166080	148800
576	218624	133632
592	137168	18016
608	97600	70768
624	134720	115216
640	79488	77120
656	95296	94720
672	14544	14496
688	42624	42432
704	272224	272080
720	64400	63200
736	63680	61712
752	85552	64048
768	92384	84704
784	198672	190272
800	108624	89328
816	147184	131104
832	140016	45616
848	266544	78272
864	125872	91232
880	107824	90496
896	48528	41360
912	126528	121216
928	48176	27952
944	84816	68272
960	113744	104176
976	105056	100096
992	45648	45376
1008	46960	31152
1024	180432	179744
1056	335232	334480
1088	96992	96880
1120	95648	80464
1152	121072	102048
1184	198304	127152
1216	101248	62896
1248	33024	32352
1280	73376	73328
1312	74736	74672
1344	93264	93120
1376	87840	87744
1408	27456	26976
1440	77280	77248
1472	72944	72944
1504	42896	42800
1536	46976	46832
1568	34896	32304
1600	67472	53392
1632	48896	33648
1664	49088	44768
1696	45728	30064
1728	49392	47440
1760	58496	47632
1792	79904	69584
1824	61296	47696
1856	43824	35632
1888	75056	44800
1920	28992	26976
1952	52800	52288
1984	57824	42528
2016	82672	65856
2048	160128	114432
2112	125088	91936
2176	96176	95792
2240	218848	200912
2304	529088	469616
2368	295040	242640
2432	179232	166544
2496	213088	195104
2560	163008	151344
2624	46496	43088
2688	89920	89888
2752	68352	68288
2816	80672	80384
2880	20976	20768
2944	68352	64704
3008	47472	20992
3072	64672	35616
3136	35696	34336
3200	27472	27024
3264	38336	38016
3328	79984	79776
3392	170432	157936
3456	139184	114400
3520	234144	143872
3584	177840	100384
3648	213840	112720
3712	88368	26672
3776	115680	54864
3840	128592	66080
3904	64912	15952
3968	101568	49264
4032	114672	38496
4096	222160	75344
4224	144656	33280
4352	155968	40112
4480	165600	61936
4608	115760	47216
4736	112624	48784
4864	80688	13104
4992	136432	82960
5120	123104	22896
5248	104560	42640
5376	68768	15440
5504	73504	16768
5632	105840	47792
5760	58896	608
5888	86736	16192
6016	51968	288
6144	72688	17312
6272	178672	76992
6400	54688	2416
6528	42512	800
6656	56368	31472
6784	44336	17184
6912	41920	624
7040	37744	6736
7168	51008	1472
7296	60720	13296
7424	54240	18880
7552	33360	8832
7680	66528	20848
7808	88816	48560
7936	131824	93456
8064	143904	68992
8192	292640	136896
8448	195760	43200
8704	307584	78304
8960	312736	65440
9216	308752	144304
9472	140224	36176
9728	138048	39792
9984	125264	41360
10240	168752	166352
10496	195440	87088
10752	270256	58448
11008	194128	47408
11264	101008	47968
11520	48464	47776
11776	42544	25728
12032	1856	1408
12288	1440	1008
12544	32800	16960
12800	17840	17472
13056	15968	496
13312	1472	1008
13568	2752	2080
13824	1088	624
14080	1776	1280
14336	85248	69008
14592	19904	18096
14848	12640	12256
15104	15104	14336
15360	17984	17440
15616	27264	26960
15872	14144	13360
16128	91584	64800
16384	586144	320064
16896	178688	160656
17408	1460480	65312
17920	660352	74320
18432	642176	59728
18944	831248	76224
19456	170576	67232
19968	3681616	3489760
20480	21680	18960
20992	26224	22704
21504	20384	17984
22016	25216	22416
22528	19856	17824
23040	15360	13376
23552	4080	2432
24064	3904	2720
24576	17040	12032
25088	16864	8656
25600	19344	8880
26112	45600	18976
26624	63904	27088
27136	69280	34384
27648	62704	34080
28160	42208	24448
28672	23936	15360
29184	14032	7392
29696	17184	8672
30208	15744	7136
30720	15936	8624
31232	14784	8400
31744	14064	7856
32256	12368	5792
32768	8256	6080
33792	640	608
34816	207376	207344
35840	2240	1024
36864	5632	4944
37888	36752	34496
38912	1120	1120
39936	10176	10160
40960	512	512
41984	656	656
43008	528	528
44032	288	288
45056	752	752
46080	1408	1392
47104	816	816
48128	608	592
49152	576	576
50176	432	432
51200	608	608
52224	624	624
53248	1040	1040
54272	3264	3264
55296	2400	2384
56320	608	592
57344	656144	656144
58368	240	208
59392	304	304
60416	304	304
61440	48	48
62464	32	32
63488	64	48
64512	0	0
65536	32	32
67584	0	0
69632	16	16
71680	16	16
73728	48	48
75776	80	80
77824	192	192
79872	496	480
81920	272	272
83968	48	48
86016	144	128
88064	64	48
90112	64	48
92160	0	0
94208	32	32
96256	112	96
98304	176	176
100352	384	384
102400	224	176
104448	64	64
106496	32	32
108544	16	16
110592	32	16
112640	48	48
114688	80	64
116736	192	192
118784	448	448
120832	352	352
122880	176	176
124928	192	192
126976	48	48
129024	16	16
131072	240	240
135168	144	144
139264	496	496
143360	144	144
147456	12544	12528
151552	18720	18720
155648	176	176
159744	416	416
163840	176	176
167936	128	128
172032	128	128
176128	240	240
180224	416	416
184320	160	160
188416	64	64
192512	112	112
196608	304	304
200704	304	304
204800	96	96
208896	96	96
212992	144	144
217088	320	320
221184	304	304
225280	112	112
229376	0	0
233472	64	64
237568	256	256
241664	192	192
245760	288	288
249856	208	208
253952	80	80
258048	272	272
262144	336	336
270336	160	160
278528	1056	1056
286720	160	160
294912	368	368
303104	784	768
311296	272	272
319488	576	576
327680	272	272
335872	496	496
344064	288	288
352256	864	400
360448	1504	256
368640	1472	272
376832	1424	336
385024	1440	240
393216	1440	256
401408	1552	416
409600	1872	672
417792	1808	672
425984	1568	352
434176	1328	176
442368	1520	352
450560	1408	240
458752	1712	560
466944	1968	736
475136	1856	704
483328	1632	480
491520	1616	400
499712	1504	336
507904	1360	176
516096	1744	592
524288	3536	1136
540672	2944	592
557056	3024	736
573440	3776	1296
589824	3120	784
606208	2688	400
622592	3376	960
638976	3216	864
655360	2912	560
671744	3104	768
688128	3408	1040
704512	2880	480
720896	2912	576
737280	3888	1552
753664	3552	1200
770048	3232	864
786432	3264	896
802816	3328	976
819200	3232	832
835584	2992	608
851968	3984	1648
868352	2992	720
884736	3280	800
901120	3968	1600
917504	3600	1328
933888	3520	1088
950272	3664	1328
966656	8080	5776
983040	20592	18176
999424	19888	17520
1015808	21104	18752
1032192	17616	15280
1048576	34640	29920
1081344	33776	29072
1114112	12896	12416
1146880	4848	4848
1179648	5472	5472
1212416	4992	4992
1245184	4608	4608
1277952	5632	5632
1310720	4672	4672
1343488	4944	4944
1376256	5200	5200
1409024	5040	5040
1441792	5536	5536
1474560	5312	5312
1507328	6464	6464
1540096	6080	6080
1572864	5824	5824
1605632	6304	6304
1638400	5184	5168
1671168	6496	6496
1703936	6000	6000
1736704	5568	5568
1769472	6256	6256
1802240	5600	5600
1835008	6464	6464
1867776	6528	6528
1900544	5840	5840
1933312	5920	5920
1966080	5488	5488
1998848	5776	5776
2031616	5440	5440
2064384	5504	5504
2097152	12880	12880
2162688	7408	7408
2228224	5264	5264
2293760	4096	4096
2359296	3648	3648
2424832	21632	21616
2490368	4896	4864
2555904	4304	4256
2621440	4512	4496
2686976	3952	3952
2752512	3456	3440
2818048	4752	4752
2883584	3936	3936
2949120	5232	5232
3014656	3920	3920
3080192	4192	4192
3145728	4352	4352
3211264	4592	4592
3276800	4048	4048
3342336	4000	4000
3407872	4480	4480
3473408	4112	4112
3538944	12720	4688
3604480	15280	4976
3670016	13680	4256
3735552	11680	4400
3801088	11776	4368
3866624	12032	4496
3932160	12496	5056
3997696	28080	21040
4063232	34352	26912
4128768	34256	26736
4194304	65488	53920
4325376	50800	50800
4456448	53968	53968
4587520	226352	224416
4718592	13568	7936
4849664	13552	8336
4980736	22800	16496
5111808	30832	24992
5242880	33088	26352
5373952	25184	20384
5505024	25152	20016
5636096	25968	20256
5767168	25680	19648
5898240	27248	21200
6029312	25184	19440
6160384	25424	19808
6291456	24496	19104
6422528	25856	19824
6553600	38064	32288
6684672	94960	91168
6815744	103664	97808
6946816	63968	58720
7077888	9472	4976
7208960	5296	704
7340032	7392	1536
7471104	3200	480
7602176	640	624
7733248	528	512
7864320	720	720
7995392	768	768
8126464	752	736
8257536	576	576
8388608	2032	1904
8650752	1696	1648
8912896	1296	1296
9175040	1664	1648
9437184	2272	1392
9699328	1296	1296
9961472	1536	1536
10223616	1216	1216
10485760	1600	1600
10747904	1216	1216
11010048	1312	1312
11272192	1680	1680
11534336	1728	1728
11796480	1792	1776
12058624	1104	1104
12320768	1056	1056
12582912	1024	896
12845056	1040	1040
13107200	1024	1024
13369344	1248	1120
13631488	2112	2096
13893632	768	768
14155776	1616	1616
14417920	1088	1088
14680064	1360	1360
14942208	1376	1248
15204352	1616	1616
15466496	1152	1152
15728640	1024	1024
15990784	1376	1376
16252928	1280	1264
16515072	1392	1392
16777216	4496	2544
17301504	2464	2464
17825792	2976	2976
18350080	2560	2560
18874368	5600	4768
19398656	27728	12032
19922944	38928	7136
20447232	32832	2256
20971520	34816	2288
21495808	2336	2096
22020096	2464	2464
22544384	1968	1968
23068672	2336	2320
23592960	276816	273120
24117248	1920	1920
24641536	1952	1952
25165824	1680	1680
25690112	1952	1952
26214400	2000	2000
26738688	2288	2288
27262976	1888	1888
27787264	1568	1568
28311552	1728	1728
28835840	1680	1680
29360128	2560	2560
29884416	2000	2000
30408704	1824	1824
30932992	2336	2336
31457280	2016	2016
31981568	6080	6080
32505856	12048	12048
33030144	11792	11792
33554432	22208	22208
34603008	25376	25376
35651584	23568	23552
36700160	25504	25504
37748736	32448	32448
38797312	384	384
39845888	816	816
40894464	560	560
41943040	816	816
42991616	848	848
44040192	976	976
45088768	832	832
46137344	816	816
47185920	560	560
48234496	784	784
49283072	592	592
50331648	704	704
51380224	560	560
52428800	656	656
53477376	992	912
54525952	864	832
55574528	1024	944
56623104	880	704
57671680	1088	880
58720256	992	800
59768832	976	800
60817408	848	704
61865984	1232	976
62914560	1120	880
63963136	944	800
65011712	768	640
66060288	928	736
67108864	1696	1392
69206016	1456	1024
71303168	2096	1616
73400320	1840	1568
75497472	2384	2112
77594624	2624	2224
79691776	2144	1840
81788928	2208	1904
83886080	2416	2096
85983232	2608	2288
88080384	2736	2416
90177536	2864	2480
92274688	2624	2240
94371840	2496	2064
96468992	2768	2336
98566144	3216	2816
100663296	2752	2352
102760448	2880	2480
104857600	2928	2656
106954752	2880	2544
109051904	2976	2592
111149056	3104	2752
113246208	2816	2416
115343360	2912	2432
117440512	2848	2480
119537664	2704	2304
121634816	3168	2832
123731968	2976	2688
125829120	2912	2560
127926272	2928	2496
130023424	3232	2752
132120576	3376	3136
134217728	5776	5072
138412032	6352	5664
142606336	6112	5584
146800640	6640	6320
150994944	6560	6032
155189248	7296	7024
159383552	6688	6336
163577856	6752	6432
167772160	7456	7088
171966464	7168	6768
176160768	7600	7152
180355072	6608	6352
184549376	6624	6352
188743680	7600	7232
192937984	7712	7344
197132288	6784	6320
201326592	6544	6224
205520896	7376	6960
209715200	6640	6304
213909504	6656	6368
218103808	7728	7200
222298112	7072	6704
226492416	6752	6336
230686720	6832	6448
234881024	6656	6320
239075328	7024	6672
243269632	6816	6432
247463936	6848	6400
251658240	6416	6160
255852544	7376	6992
260046848	7504	7088
264241152	6896	6592
268435456	13008	12368
276824064	14192	13616
285212672	13776	13200
293601280	15248	15040
301989888	13104	12976
310378496	13872	13440
318767104	19888	19296
327155712	20752	19968
335544320	22832	22176
343932928	23456	22704
352321536	131312	73984
360710144	14368	13600
369098752	13552	12944
377487360	13712	13712
385875968	14512	14512
394264576	4240	4240
402653184	10768	4288
411041792	5584	3264
419430400	3168	3168
427819008	3024	3024
436207616	2336	2336
444596224	13552	2432
452984832	32048	2032
461373440	6848	896
469762048	768	768
478150656	704	704
486539264	0	0
494927872	17360	0
503316480	0	0
511705088	0	0
520093696	27808	0
528482304	0	0
536870912	27392	0
553648128	0	0
570425344	0	0
587202560	0	0
603979776	0	0
620756992	0	0
637534208	0	0
654311424	0	0
671088640	0	0
687865856	0	0
704643072	0	0
721420288	0	0
738197504	0	0
754974720	0	0
771751936	0	0
788529152	0	0
805306368	0	0
822083584	0	0
838860800	0	0
855638016	0	0
872415232	0	0
889192448	0	0
905969664	0	0
922746880	0	0
939524096	0	0
956301312	0	0
973078528	0	0
989855744	0	0
1006632960	0	0
1023410176	0	0
1040187392	0	0
1056964608	0	0
1073741824	0	0
1107296256	0	0
1140850688	0	0
1174405120	0	0
1207959552	0	0
1241513984	0	0
1275068416	0	0
1308622848	0	0
1342177280	0	0
1375731712	0	0
1409286144	0	0
1442840576	0	0
1476395008	0	0
1509949440	0	0
1543503872	0	0
1577058304	0	0
1610612736	0	0
1644167168	0	0
1677721600	0	0
1711276032	0	0
1744830464	0	0
1778384896	0	0
1811939328	0	0
1845493760	0	0
1879048192	0	0
1912602624	0	0
1946157056	0	0
1979711488	0	0
2013265920	0	0
2046820352	0	0
2080374784	0	0
2113929216	0	0
2147483648	0	0
2214592512	0	0
2281701376	0	0
2348810240	0	0
2415919104	0	0
2483027968	0	0
2550136832	0	0
2617245696	0	0
2684354560	0	0
2751463424	0	0
2818572288	0	0
2885681152	0	0
2952790016	0	0
3019898880	0	0
3087007744	0	0
3154116608	0	0
3221225472	0	0
3288334336	0	0
3355443200	0	0
3422552064	0	0
3489660928	0	0
3556769792	0	0
3623878656	0	0
3690987520	0	0
3758096384	0	0
3825205248	0	0
3892314112	0	0
3959422976	0	0
4026531840	0	0
4093640704	0	0
4160749568	0	0
4227858432	0	0
~~~~~~~~~~Reuse Distance Profiler output end~~~~~~~~~~

DRAM Statistics
 CHANNEL 0
 RQ ROW_BUFFER_HIT:      99695  ROW_BUFFER_MISS:    2889935
 DBUS AVG_CONGESTED_CYCLE:    3.92769
 WQ ROW_BUFFER_HIT:     223269  ROW_BUFFER_MISS:    1098822  FULL:          0


CPU 0 Branch Prediction Accuracy: 96.3028% MPKI: 4.77302 Average ROB Occupancy at Mispredict: 130.868
Branch type MPKI
BRANCH_DIRECT_JUMP: 0.000244667
BRANCH_INDIRECT: 0.000185333
BRANCH_CONDITIONAL: 4.77135
BRANCH_DIRECT_CALL: 0.000748667
BRANCH_INDIRECT_CALL: 2.33333e-05
BRANCH_RETURN: 0.000470667

