
*** ChampSim Multicore Out-of-Order Simulator ***

Warmup Instructions: 500000000
Simulation Instructions: 1500000000
Number of CPUs: 1
Off-chip DRAM Size: 4 GiB Channels: 1 Width: 64-bit Data Rate: 3200 MT/s

VirtualMemory physical capacity: 8588881920 num_ppages: 2096895
VirtualMemory page size: 4096 log2_page_size: 12

CPU 0 runs traces/481.wrf-1281B.champsimtrace.xz
CPU 0 Bimodal branch predictor
Basic BTB sets: 1024 ways: 8 indirect buffer size: 4096 RAS size: 64
Initializing LRU.
Initializing LRU.
Initializing LRU.
Initializing LRU.
Initializing rdLRU.
Initializing LRU.
Initializing LRU.
Heartbeat CPU 0 instructions: 10000001 cycles: 4303128 heartbeat IPC: 2.32389 cumulative IPC: 2.32389 (Simulation time: 0 hr 1 min 8 sec) 
Heartbeat CPU 0 instructions: 20000000 cycles: 7016076 heartbeat IPC: 3.68603 cumulative IPC: 2.8506 (Simulation time: 0 hr 2 min 0 sec) 
Heartbeat CPU 0 instructions: 30000000 cycles: 9983604 heartbeat IPC: 3.36981 cumulative IPC: 3.00493 (Simulation time: 0 hr 2 min 53 sec) 
Heartbeat CPU 0 instructions: 40000003 cycles: 12821736 heartbeat IPC: 3.52345 cumulative IPC: 3.1197 (Simulation time: 0 hr 3 min 49 sec) 
Heartbeat CPU 0 instructions: 50000003 cycles: 16033834 heartbeat IPC: 3.11323 cumulative IPC: 3.11841 (Simulation time: 0 hr 4 min 35 sec) 
Heartbeat CPU 0 instructions: 60000003 cycles: 18623598 heartbeat IPC: 3.86136 cumulative IPC: 3.22172 (Simulation time: 0 hr 5 min 18 sec) 
Heartbeat CPU 0 instructions: 70000000 cycles: 21134181 heartbeat IPC: 3.98314 cumulative IPC: 3.31217 (Simulation time: 0 hr 6 min 3 sec) 
Heartbeat CPU 0 instructions: 80000002 cycles: 23723819 heartbeat IPC: 3.86154 cumulative IPC: 3.37214 (Simulation time: 0 hr 6 min 31 sec) 
Heartbeat CPU 0 instructions: 90000002 cycles: 26223819 heartbeat IPC: 4 cumulative IPC: 3.43199 (Simulation time: 0 hr 7 min 6 sec) 
Heartbeat CPU 0 instructions: 100000001 cycles: 29958238 heartbeat IPC: 2.67779 cumulative IPC: 3.33798 (Simulation time: 0 hr 8 min 21 sec) 
Heartbeat CPU 0 instructions: 110000004 cycles: 34370086 heartbeat IPC: 2.26662 cumulative IPC: 3.20046 (Simulation time: 0 hr 9 min 38 sec) 
Heartbeat CPU 0 instructions: 120000002 cycles: 38795896 heartbeat IPC: 2.25947 cumulative IPC: 3.09311 (Simulation time: 0 hr 11 min 26 sec) 
Heartbeat CPU 0 instructions: 130000000 cycles: 43248970 heartbeat IPC: 2.24564 cumulative IPC: 3.00585 (Simulation time: 0 hr 13 min 29 sec) 
Heartbeat CPU 0 instructions: 140000001 cycles: 47666311 heartbeat IPC: 2.26381 cumulative IPC: 2.93708 (Simulation time: 0 hr 15 min 15 sec) 
Heartbeat CPU 0 instructions: 150000001 cycles: 52086604 heartbeat IPC: 2.26229 cumulative IPC: 2.87982 (Simulation time: 0 hr 16 min 49 sec) 
Heartbeat CPU 0 instructions: 160000001 cycles: 55680627 heartbeat IPC: 2.7824 cumulative IPC: 2.87353 (Simulation time: 0 hr 17 min 51 sec) 
Heartbeat CPU 0 instructions: 170000002 cycles: 58746669 heartbeat IPC: 3.26153 cumulative IPC: 2.89378 (Simulation time: 0 hr 18 min 44 sec) 
Heartbeat CPU 0 instructions: 180000004 cycles: 61817118 heartbeat IPC: 3.25685 cumulative IPC: 2.91181 (Simulation time: 0 hr 19 min 32 sec) 
Heartbeat CPU 0 instructions: 190000002 cycles: 64884889 heartbeat IPC: 3.2597 cumulative IPC: 2.92826 (Simulation time: 0 hr 20 min 24 sec) 
Heartbeat CPU 0 instructions: 200000002 cycles: 67994175 heartbeat IPC: 3.21617 cumulative IPC: 2.94143 (Simulation time: 0 hr 21 min 28 sec) 
Heartbeat CPU 0 instructions: 210000002 cycles: 71643979 heartbeat IPC: 2.73987 cumulative IPC: 2.93116 (Simulation time: 0 hr 23 min 6 sec) 
Heartbeat CPU 0 instructions: 220000001 cycles: 75294171 heartbeat IPC: 2.73958 cumulative IPC: 2.92187 (Simulation time: 0 hr 24 min 36 sec) 
Heartbeat CPU 0 instructions: 230000001 cycles: 78948984 heartbeat IPC: 2.73612 cumulative IPC: 2.91327 (Simulation time: 0 hr 25 min 51 sec) 
Heartbeat CPU 0 instructions: 240000002 cycles: 82012918 heartbeat IPC: 3.26378 cumulative IPC: 2.92637 (Simulation time: 0 hr 27 min 4 sec) 
Heartbeat CPU 0 instructions: 250000003 cycles: 84624874 heartbeat IPC: 3.82855 cumulative IPC: 2.95421 (Simulation time: 0 hr 27 min 46 sec) 
Heartbeat CPU 0 instructions: 260000000 cycles: 87247720 heartbeat IPC: 3.81265 cumulative IPC: 2.98002 (Simulation time: 0 hr 28 min 22 sec) 
Heartbeat CPU 0 instructions: 270000000 cycles: 90081384 heartbeat IPC: 3.529 cumulative IPC: 2.99729 (Simulation time: 0 hr 29 min 15 sec) 
Heartbeat CPU 0 instructions: 280000001 cycles: 92669270 heartbeat IPC: 3.86416 cumulative IPC: 3.0215 (Simulation time: 0 hr 30 min 21 sec) 
Heartbeat CPU 0 instructions: 290000001 cycles: 95559002 heartbeat IPC: 3.46053 cumulative IPC: 3.03477 (Simulation time: 0 hr 31 min 34 sec) 
Heartbeat CPU 0 instructions: 300000002 cycles: 98550059 heartbeat IPC: 3.3433 cumulative IPC: 3.04414 (Simulation time: 0 hr 32 min 38 sec) 
Heartbeat CPU 0 instructions: 310000001 cycles: 101529802 heartbeat IPC: 3.35599 cumulative IPC: 3.05329 (Simulation time: 0 hr 33 min 19 sec) 
Heartbeat CPU 0 instructions: 320000003 cycles: 104511695 heartbeat IPC: 3.35357 cumulative IPC: 3.06186 (Simulation time: 0 hr 34 min 24 sec) 
Heartbeat CPU 0 instructions: 330000000 cycles: 107502087 heartbeat IPC: 3.34404 cumulative IPC: 3.06971 (Simulation time: 0 hr 35 min 21 sec) 
Heartbeat CPU 0 instructions: 340000001 cycles: 110486719 heartbeat IPC: 3.3505 cumulative IPC: 3.07729 (Simulation time: 0 hr 36 min 19 sec) 
Heartbeat CPU 0 instructions: 350000000 cycles: 113466172 heartbeat IPC: 3.35632 cumulative IPC: 3.08462 (Simulation time: 0 hr 37 min 5 sec) 
Heartbeat CPU 0 instructions: 360000000 cycles: 116450808 heartbeat IPC: 3.35049 cumulative IPC: 3.09143 (Simulation time: 0 hr 38 min 0 sec) 
Heartbeat CPU 0 instructions: 370000000 cycles: 119443046 heartbeat IPC: 3.34198 cumulative IPC: 3.09771 (Simulation time: 0 hr 38 min 41 sec) 
Heartbeat CPU 0 instructions: 380000000 cycles: 121986805 heartbeat IPC: 3.93119 cumulative IPC: 3.11509 (Simulation time: 0 hr 39 min 11 sec) 
Heartbeat CPU 0 instructions: 390000000 cycles: 124486805 heartbeat IPC: 4 cumulative IPC: 3.13286 (Simulation time: 0 hr 39 min 41 sec) 
Heartbeat CPU 0 instructions: 400000001 cycles: 128263640 heartbeat IPC: 2.64772 cumulative IPC: 3.11858 (Simulation time: 0 hr 40 min 43 sec) 
Heartbeat CPU 0 instructions: 410000004 cycles: 132714873 heartbeat IPC: 2.24657 cumulative IPC: 3.08933 (Simulation time: 0 hr 42 min 26 sec) 
Heartbeat CPU 0 instructions: 420000003 cycles: 137121268 heartbeat IPC: 2.26943 cumulative IPC: 3.06298 (Simulation time: 0 hr 44 min 38 sec) 
Heartbeat CPU 0 instructions: 430000002 cycles: 141554321 heartbeat IPC: 2.25578 cumulative IPC: 3.0377 (Simulation time: 0 hr 46 min 42 sec) 
Heartbeat CPU 0 instructions: 440000000 cycles: 146007388 heartbeat IPC: 2.24564 cumulative IPC: 3.01355 (Simulation time: 0 hr 49 min 0 sec) 
Heartbeat CPU 0 instructions: 450000002 cycles: 150417927 heartbeat IPC: 2.2673 cumulative IPC: 2.99166 (Simulation time: 0 hr 51 min 18 sec) 
Heartbeat CPU 0 instructions: 460000000 cycles: 153955336 heartbeat IPC: 2.82693 cumulative IPC: 2.98788 (Simulation time: 0 hr 52 min 56 sec) 
Heartbeat CPU 0 instructions: 470000002 cycles: 157021760 heartbeat IPC: 3.26113 cumulative IPC: 2.99322 (Simulation time: 0 hr 53 min 46 sec) 
Heartbeat CPU 0 instructions: 480000000 cycles: 160091531 heartbeat IPC: 3.25757 cumulative IPC: 2.99828 (Simulation time: 0 hr 54 min 48 sec) 
Heartbeat CPU 0 instructions: 490000002 cycles: 163159980 heartbeat IPC: 3.25898 cumulative IPC: 3.00319 (Simulation time: 0 hr 55 min 59 sec) 
Heartbeat CPU 0 instructions: 500000000 cycles: 166284654 heartbeat IPC: 3.20033 cumulative IPC: 3.00689 (Simulation time: 0 hr 56 min 47 sec) 

Warmup complete CPU 0 instructions: 500000005 cycles: 166284655 (Simulation time: 0 hr 56 min 47 sec) 

Heartbeat CPU 0 instructions: 510000002 cycles: 174162165 heartbeat IPC: 1.26944 cumulative IPC: 1.26944 (Simulation time: 0 hr 58 min 38 sec) 
Heartbeat CPU 0 instructions: 520000000 cycles: 182028331 heartbeat IPC: 1.27127 cumulative IPC: 1.27035 (Simulation time: 1 hr 1 min 4 sec) 
Heartbeat CPU 0 instructions: 530000004 cycles: 189864136 heartbeat IPC: 1.27619 cumulative IPC: 1.27229 (Simulation time: 1 hr 3 min 53 sec) 
Heartbeat CPU 0 instructions: 540000001 cycles: 200370842 heartbeat IPC: 0.951773 cumulative IPC: 1.1735 (Simulation time: 1 hr 5 min 52 sec) 
Heartbeat CPU 0 instructions: 550000002 cycles: 209374313 heartbeat IPC: 1.11068 cumulative IPC: 1.16037 (Simulation time: 1 hr 7 min 18 sec) 
Heartbeat CPU 0 instructions: 560000002 cycles: 217216180 heartbeat IPC: 1.27521 cumulative IPC: 1.17805 (Simulation time: 1 hr 8 min 36 sec) 
Heartbeat CPU 0 instructions: 570000001 cycles: 227921096 heartbeat IPC: 0.93415 cumulative IPC: 1.13569 (Simulation time: 1 hr 10 min 11 sec) 
Heartbeat CPU 0 instructions: 580000000 cycles: 240862914 heartbeat IPC: 0.772689 cumulative IPC: 1.0727 (Simulation time: 1 hr 11 min 56 sec) 
Heartbeat CPU 0 instructions: 590000004 cycles: 251960070 heartbeat IPC: 0.901132 cumulative IPC: 1.05048 (Simulation time: 1 hr 13 min 34 sec) 
Heartbeat CPU 0 instructions: 600000003 cycles: 262498860 heartbeat IPC: 0.948875 cumulative IPC: 1.03935 (Simulation time: 1 hr 15 min 6 sec) 
Heartbeat CPU 0 instructions: 610000004 cycles: 271206481 heartbeat IPC: 1.14842 cumulative IPC: 1.0484 (Simulation time: 1 hr 16 min 28 sec) 
Heartbeat CPU 0 instructions: 620000002 cycles: 279872015 heartbeat IPC: 1.154 cumulative IPC: 1.05646 (Simulation time: 1 hr 17 min 50 sec) 
Heartbeat CPU 0 instructions: 630000000 cycles: 288457784 heartbeat IPC: 1.16472 cumulative IPC: 1.06406 (Simulation time: 1 hr 19 min 12 sec) 
Heartbeat CPU 0 instructions: 640000003 cycles: 297113855 heartbeat IPC: 1.15526 cumulative IPC: 1.0701 (Simulation time: 1 hr 20 min 34 sec) 
Heartbeat CPU 0 instructions: 650000001 cycles: 305795321 heartbeat IPC: 1.15188 cumulative IPC: 1.07519 (Simulation time: 1 hr 21 min 55 sec) 
Heartbeat CPU 0 instructions: 660000004 cycles: 314410363 heartbeat IPC: 1.16076 cumulative IPC: 1.08016 (Simulation time: 1 hr 23 min 15 sec) 
Heartbeat CPU 0 instructions: 670000004 cycles: 323088909 heartbeat IPC: 1.15227 cumulative IPC: 1.08415 (Simulation time: 1 hr 24 min 51 sec) 
Heartbeat CPU 0 instructions: 680000000 cycles: 331737086 heartbeat IPC: 1.15631 cumulative IPC: 1.08793 (Simulation time: 1 hr 26 min 33 sec) 
Heartbeat CPU 0 instructions: 690000003 cycles: 343881658 heartbeat IPC: 0.823413 cumulative IPC: 1.06984 (Simulation time: 1 hr 28 min 33 sec) 
Heartbeat CPU 0 instructions: 700000003 cycles: 356182352 heartbeat IPC: 0.812962 cumulative IPC: 1.0532 (Simulation time: 1 hr 30 min 22 sec) 
Heartbeat CPU 0 instructions: 710000003 cycles: 369040925 heartbeat IPC: 0.777691 cumulative IPC: 1.03573 (Simulation time: 1 hr 32 min 13 sec) 
Heartbeat CPU 0 instructions: 720000000 cycles: 377923188 heartbeat IPC: 1.12584 cumulative IPC: 1.03951 (Simulation time: 1 hr 33 min 42 sec) 
Heartbeat CPU 0 instructions: 730000003 cycles: 394589961 heartbeat IPC: 0.599996 cumulative IPC: 1.00742 (Simulation time: 1 hr 37 min 13 sec) 
Heartbeat CPU 0 instructions: 740000000 cycles: 404740552 heartbeat IPC: 0.985164 cumulative IPC: 1.00648 (Simulation time: 1 hr 38 min 44 sec) 
Heartbeat CPU 0 instructions: 750000004 cycles: 410385007 heartbeat IPC: 1.77165 cumulative IPC: 1.02417 (Simulation time: 1 hr 39 min 49 sec) 
Heartbeat CPU 0 instructions: 760000002 cycles: 415710721 heartbeat IPC: 1.87768 cumulative IPC: 1.04239 (Simulation time: 1 hr 40 min 52 sec) 
Heartbeat CPU 0 instructions: 770000001 cycles: 421005800 heartbeat IPC: 1.88855 cumulative IPC: 1.05998 (Simulation time: 1 hr 41 min 50 sec) 
Heartbeat CPU 0 instructions: 780000003 cycles: 426206548 heartbeat IPC: 1.9228 cumulative IPC: 1.07725 (Simulation time: 1 hr 42 min 45 sec) 
Heartbeat CPU 0 instructions: 790000000 cycles: 431380026 heartbeat IPC: 1.93293 cumulative IPC: 1.09395 (Simulation time: 1 hr 43 min 39 sec) 
Heartbeat CPU 0 instructions: 800000002 cycles: 437340212 heartbeat IPC: 1.6778 cumulative IPC: 1.10678 (Simulation time: 1 hr 44 min 52 sec) 
Heartbeat CPU 0 instructions: 810000003 cycles: 443278751 heartbeat IPC: 1.68392 cumulative IPC: 1.11916 (Simulation time: 1 hr 46 min 46 sec) 
Heartbeat CPU 0 instructions: 820000004 cycles: 454450347 heartbeat IPC: 0.895127 cumulative IPC: 1.11047 (Simulation time: 1 hr 48 min 42 sec) 
Heartbeat CPU 0 instructions: 830000000 cycles: 462652275 heartbeat IPC: 1.21923 cumulative IPC: 1.11348 (Simulation time: 1 hr 50 min 2 sec) 
Heartbeat CPU 0 instructions: 840000003 cycles: 468031249 heartbeat IPC: 1.85909 cumulative IPC: 1.12677 (Simulation time: 1 hr 51 min 15 sec) 
Heartbeat CPU 0 instructions: 850000002 cycles: 473189932 heartbeat IPC: 1.93848 cumulative IPC: 1.14042 (Simulation time: 1 hr 52 min 59 sec) 
Heartbeat CPU 0 instructions: 860000004 cycles: 478510123 heartbeat IPC: 1.87963 cumulative IPC: 1.15301 (Simulation time: 1 hr 54 min 44 sec) 
Heartbeat CPU 0 instructions: 870000000 cycles: 483994466 heartbeat IPC: 1.82337 cumulative IPC: 1.16458 (Simulation time: 1 hr 56 min 20 sec) 
Heartbeat CPU 0 instructions: 880000001 cycles: 489431286 heartbeat IPC: 1.83931 cumulative IPC: 1.17594 (Simulation time: 1 hr 58 min 3 sec) 
Heartbeat CPU 0 instructions: 890000000 cycles: 496554634 heartbeat IPC: 1.40383 cumulative IPC: 1.18085 (Simulation time: 1 hr 59 min 32 sec) 
Heartbeat CPU 0 instructions: 900000004 cycles: 503909419 heartbeat IPC: 1.35966 cumulative IPC: 1.18475 (Simulation time: 2 hr 0 min 44 sec) 
Heartbeat CPU 0 instructions: 910000000 cycles: 514755355 heartbeat IPC: 0.922004 cumulative IPC: 1.17657 (Simulation time: 2 hr 2 min 9 sec) 
Heartbeat CPU 0 instructions: 920000003 cycles: 523351596 heartbeat IPC: 1.1633 cumulative IPC: 1.17625 (Simulation time: 2 hr 3 min 23 sec) 
Heartbeat CPU 0 instructions: 930000000 cycles: 529051250 heartbeat IPC: 1.75449 cumulative IPC: 1.18534 (Simulation time: 2 hr 4 min 25 sec) 
Heartbeat CPU 0 instructions: 940000003 cycles: 534384838 heartbeat IPC: 1.87491 cumulative IPC: 1.19533 (Simulation time: 2 hr 5 min 26 sec) 
Heartbeat CPU 0 instructions: 950000003 cycles: 539687719 heartbeat IPC: 1.88577 cumulative IPC: 1.20513 (Simulation time: 2 hr 6 min 24 sec) 
Heartbeat CPU 0 instructions: 960000000 cycles: 544885435 heartbeat IPC: 1.92392 cumulative IPC: 1.215 (Simulation time: 2 hr 7 min 18 sec) 
Heartbeat CPU 0 instructions: 970000004 cycles: 550080833 heartbeat IPC: 1.92478 cumulative IPC: 1.22461 (Simulation time: 2 hr 8 min 12 sec) 
Heartbeat CPU 0 instructions: 980000002 cycles: 555936954 heartbeat IPC: 1.70761 cumulative IPC: 1.23187 (Simulation time: 2 hr 9 min 20 sec) 
Heartbeat CPU 0 instructions: 990000001 cycles: 561916711 heartbeat IPC: 1.67231 cumulative IPC: 1.23852 (Simulation time: 2 hr 10 min 25 sec) 
Heartbeat CPU 0 instructions: 1000000000 cycles: 572244966 heartbeat IPC: 0.968218 cumulative IPC: 1.23165 (Simulation time: 2 hr 11 min 52 sec) 
Heartbeat CPU 0 instructions: 1010000001 cycles: 581204392 heartbeat IPC: 1.11614 cumulative IPC: 1.22915 (Simulation time: 2 hr 13 min 38 sec) 
Heartbeat CPU 0 instructions: 1020000004 cycles: 586692663 heartbeat IPC: 1.82207 cumulative IPC: 1.23689 (Simulation time: 2 hr 14 min 41 sec) 
Heartbeat CPU 0 instructions: 1030000004 cycles: 591878734 heartbeat IPC: 1.92824 cumulative IPC: 1.24532 (Simulation time: 2 hr 15 min 43 sec) 
Heartbeat CPU 0 instructions: 1040000000 cycles: 597159239 heartbeat IPC: 1.89376 cumulative IPC: 1.25326 (Simulation time: 2 hr 16 min 49 sec) 
Heartbeat CPU 0 instructions: 1050000004 cycles: 602614344 heartbeat IPC: 1.83315 cumulative IPC: 1.26051 (Simulation time: 2 hr 18 min 12 sec) 
Heartbeat CPU 0 instructions: 1060000003 cycles: 608059826 heartbeat IPC: 1.83638 cumulative IPC: 1.26761 (Simulation time: 2 hr 19 min 13 sec) 
Heartbeat CPU 0 instructions: 1070000001 cycles: 613875517 heartbeat IPC: 1.71949 cumulative IPC: 1.27348 (Simulation time: 2 hr 20 min 14 sec) 
Heartbeat CPU 0 instructions: 1080000003 cycles: 619844275 heartbeat IPC: 1.67539 cumulative IPC: 1.27877 (Simulation time: 2 hr 21 min 16 sec) 
Heartbeat CPU 0 instructions: 1090000002 cycles: 629707528 heartbeat IPC: 1.01386 cumulative IPC: 1.27314 (Simulation time: 2 hr 22 min 37 sec) 
Heartbeat CPU 0 instructions: 1100000001 cycles: 639135507 heartbeat IPC: 1.06067 cumulative IPC: 1.2689 (Simulation time: 2 hr 24 min 2 sec) 
Heartbeat CPU 0 instructions: 1110000003 cycles: 646027995 heartbeat IPC: 1.45086 cumulative IPC: 1.27151 (Simulation time: 2 hr 25 min 16 sec) 
Heartbeat CPU 0 instructions: 1120000004 cycles: 652327007 heartbeat IPC: 1.58755 cumulative IPC: 1.27561 (Simulation time: 2 hr 26 min 26 sec) 
Heartbeat CPU 0 instructions: 1130000002 cycles: 658208163 heartbeat IPC: 1.70035 cumulative IPC: 1.28069 (Simulation time: 2 hr 27 min 31 sec) 
Heartbeat CPU 0 instructions: 1140000000 cycles: 663429813 heartbeat IPC: 1.9151 cumulative IPC: 1.28735 (Simulation time: 2 hr 28 min 26 sec) 
Heartbeat CPU 0 instructions: 1150000001 cycles: 668638699 heartbeat IPC: 1.9198 cumulative IPC: 1.29391 (Simulation time: 2 hr 29 min 22 sec) 
Heartbeat CPU 0 instructions: 1160000002 cycles: 674409355 heartbeat IPC: 1.73291 cumulative IPC: 1.29889 (Simulation time: 2 hr 30 min 35 sec) 
Heartbeat CPU 0 instructions: 1170000000 cycles: 680375960 heartbeat IPC: 1.67599 cumulative IPC: 1.30327 (Simulation time: 2 hr 31 min 39 sec) 
Heartbeat CPU 0 instructions: 1180000001 cycles: 689788554 heartbeat IPC: 1.06241 cumulative IPC: 1.29894 (Simulation time: 2 hr 33 min 2 sec) 
Heartbeat CPU 0 instructions: 1190000001 cycles: 699749002 heartbeat IPC: 1.00397 cumulative IPC: 1.29343 (Simulation time: 2 hr 34 min 56 sec) 
Heartbeat CPU 0 instructions: 1200000000 cycles: 705241739 heartbeat IPC: 1.82059 cumulative IPC: 1.2988 (Simulation time: 2 hr 36 min 17 sec) 
Heartbeat CPU 0 instructions: 1210000000 cycles: 710471960 heartbeat IPC: 1.91197 cumulative IPC: 1.3047 (Simulation time: 2 hr 37 min 58 sec) 
Heartbeat CPU 0 instructions: 1220000001 cycles: 715986747 heartbeat IPC: 1.81331 cumulative IPC: 1.3098 (Simulation time: 2 hr 39 min 27 sec) 
Heartbeat CPU 0 instructions: 1230000004 cycles: 722405896 heartbeat IPC: 1.55784 cumulative IPC: 1.31266 (Simulation time: 2 hr 41 min 5 sec) 
Heartbeat CPU 0 instructions: 1240000000 cycles: 728783967 heartbeat IPC: 1.56787 cumulative IPC: 1.31556 (Simulation time: 2 hr 42 min 12 sec) 
Heartbeat CPU 0 instructions: 1250000004 cycles: 734832314 heartbeat IPC: 1.65334 cumulative IPC: 1.31915 (Simulation time: 2 hr 43 min 13 sec) 
Heartbeat CPU 0 instructions: 1260000000 cycles: 740741460 heartbeat IPC: 1.69229 cumulative IPC: 1.32299 (Simulation time: 2 hr 44 min 13 sec) 
Heartbeat CPU 0 instructions: 1270000004 cycles: 749633110 heartbeat IPC: 1.12465 cumulative IPC: 1.31997 (Simulation time: 2 hr 45 min 27 sec) 
Heartbeat CPU 0 instructions: 1280000002 cycles: 760562825 heartbeat IPC: 0.914937 cumulative IPC: 1.31252 (Simulation time: 2 hr 46 min 58 sec) 
Heartbeat CPU 0 instructions: 1290000004 cycles: 770764837 heartbeat IPC: 0.980199 cumulative IPC: 1.30691 (Simulation time: 2 hr 48 min 11 sec) 
Heartbeat CPU 0 instructions: 1300000003 cycles: 780984213 heartbeat IPC: 0.978533 cumulative IPC: 1.30145 (Simulation time: 2 hr 49 min 24 sec) 
Heartbeat CPU 0 instructions: 1310000002 cycles: 791201164 heartbeat IPC: 0.978765 cumulative IPC: 1.29617 (Simulation time: 2 hr 50 min 37 sec) 
Heartbeat CPU 0 instructions: 1320000003 cycles: 801405175 heartbeat IPC: 0.980007 cumulative IPC: 1.29109 (Simulation time: 2 hr 52 min 14 sec) 
Heartbeat CPU 0 instructions: 1330000004 cycles: 811627117 heartbeat IPC: 0.978288 cumulative IPC: 1.28614 (Simulation time: 2 hr 54 min 5 sec) 
Heartbeat CPU 0 instructions: 1340000000 cycles: 821839573 heartbeat IPC: 0.979196 cumulative IPC: 1.28136 (Simulation time: 2 hr 55 min 20 sec) 
Heartbeat CPU 0 instructions: 1350000000 cycles: 832041565 heartbeat IPC: 0.980201 cumulative IPC: 1.27674 (Simulation time: 2 hr 56 min 34 sec) 
Heartbeat CPU 0 instructions: 1360000003 cycles: 842269158 heartbeat IPC: 0.977747 cumulative IPC: 1.27222 (Simulation time: 2 hr 57 min 49 sec) 
Heartbeat CPU 0 instructions: 1370000003 cycles: 852482275 heartbeat IPC: 0.979133 cumulative IPC: 1.26786 (Simulation time: 2 hr 59 min 2 sec) 
Heartbeat CPU 0 instructions: 1380000001 cycles: 862686671 heartbeat IPC: 0.97997 cumulative IPC: 1.26364 (Simulation time: 3 hr 0 min 16 sec) 
Heartbeat CPU 0 instructions: 1390000002 cycles: 872916727 heartbeat IPC: 0.977512 cumulative IPC: 1.2595 (Simulation time: 3 hr 1 min 30 sec) 
Heartbeat CPU 0 instructions: 1400000000 cycles: 883123514 heartbeat IPC: 0.97974 cumulative IPC: 1.25551 (Simulation time: 3 hr 2 min 44 sec) 
Heartbeat CPU 0 instructions: 1410000000 cycles: 893328645 heartbeat IPC: 0.979899 cumulative IPC: 1.25164 (Simulation time: 3 hr 3 min 57 sec) 
Heartbeat CPU 0 instructions: 1420000001 cycles: 903561547 heartbeat IPC: 0.97724 cumulative IPC: 1.24784 (Simulation time: 3 hr 5 min 12 sec) 
Heartbeat CPU 0 instructions: 1430000000 cycles: 913764154 heartbeat IPC: 0.980142 cumulative IPC: 1.24418 (Simulation time: 3 hr 6 min 25 sec) 
Heartbeat CPU 0 instructions: 1440000004 cycles: 923974055 heartbeat IPC: 0.979442 cumulative IPC: 1.24061 (Simulation time: 3 hr 7 min 38 sec) 
Heartbeat CPU 0 instructions: 1450000000 cycles: 935072614 heartbeat IPC: 0.901017 cumulative IPC: 1.23571 (Simulation time: 3 hr 8 min 58 sec) 
Heartbeat CPU 0 instructions: 1460000003 cycles: 945319126 heartbeat IPC: 0.975942 cumulative IPC: 1.23229 (Simulation time: 3 hr 10 min 23 sec) 
Heartbeat CPU 0 instructions: 1470000001 cycles: 955311342 heartbeat IPC: 1.00078 cumulative IPC: 1.22936 (Simulation time: 3 hr 11 min 49 sec) 
Heartbeat CPU 0 instructions: 1480000000 cycles: 961942838 heartbeat IPC: 1.50796 cumulative IPC: 1.23168 (Simulation time: 3 hr 12 min 54 sec) 
Heartbeat CPU 0 instructions: 1490000001 cycles: 973387859 heartbeat IPC: 0.873742 cumulative IPC: 1.22661 (Simulation time: 3 hr 14 min 21 sec) 
Heartbeat CPU 0 instructions: 1500000001 cycles: 990015453 heartbeat IPC: 0.60141 cumulative IPC: 1.21399 (Simulation time: 3 hr 16 min 11 sec) 
Heartbeat CPU 0 instructions: 1510000001 cycles: 1006574358 heartbeat IPC: 0.603905 cumulative IPC: 1.20197 (Simulation time: 3 hr 18 min 2 sec) 
Heartbeat CPU 0 instructions: 1520000002 cycles: 1023883349 heartbeat IPC: 0.577734 cumulative IPC: 1.18937 (Simulation time: 3 hr 19 min 55 sec) 
Heartbeat CPU 0 instructions: 1530000000 cycles: 1041039173 heartbeat IPC: 0.582892 cumulative IPC: 1.17747 (Simulation time: 3 hr 21 min 48 sec) 
Heartbeat CPU 0 instructions: 1540000000 cycles: 1058217123 heartbeat IPC: 0.582142 cumulative IPC: 1.16601 (Simulation time: 3 hr 23 min 41 sec) 
Heartbeat CPU 0 instructions: 1550000003 cycles: 1075488650 heartbeat IPC: 0.578988 cumulative IPC: 1.15486 (Simulation time: 3 hr 25 min 33 sec) 
Heartbeat CPU 0 instructions: 1560000001 cycles: 1092740551 heartbeat IPC: 0.579646 cumulative IPC: 1.14415 (Simulation time: 3 hr 27 min 26 sec) 
Heartbeat CPU 0 instructions: 1570000004 cycles: 1105741092 heartbeat IPC: 0.769199 cumulative IPC: 1.13896 (Simulation time: 3 hr 29 min 10 sec) 
Heartbeat CPU 0 instructions: 1580000002 cycles: 1117102221 heartbeat IPC: 0.880194 cumulative IPC: 1.13586 (Simulation time: 3 hr 30 min 37 sec) 
Heartbeat CPU 0 instructions: 1590000000 cycles: 1125671961 heartbeat IPC: 1.1669 cumulative IPC: 1.13614 (Simulation time: 3 hr 31 min 46 sec) 
Heartbeat CPU 0 instructions: 1600000003 cycles: 1133697424 heartbeat IPC: 1.24603 cumulative IPC: 1.13705 (Simulation time: 3 hr 32 min 58 sec) 
Heartbeat CPU 0 instructions: 1610000004 cycles: 1140404435 heartbeat IPC: 1.49098 cumulative IPC: 1.13949 (Simulation time: 3 hr 34 min 13 sec) 
Heartbeat CPU 0 instructions: 1620000003 cycles: 1146922300 heartbeat IPC: 1.53424 cumulative IPC: 1.14211 (Simulation time: 3 hr 35 min 23 sec) 
Heartbeat CPU 0 instructions: 1630000000 cycles: 1152572536 heartbeat IPC: 1.76984 cumulative IPC: 1.14571 (Simulation time: 3 hr 36 min 27 sec) 
Heartbeat CPU 0 instructions: 1640000004 cycles: 1157911190 heartbeat IPC: 1.87313 cumulative IPC: 1.14963 (Simulation time: 3 hr 37 min 29 sec) 
Heartbeat CPU 0 instructions: 1650000002 cycles: 1163231576 heartbeat IPC: 1.87956 cumulative IPC: 1.15352 (Simulation time: 3 hr 38 min 31 sec) 
Heartbeat CPU 0 instructions: 1660000002 cycles: 1168906211 heartbeat IPC: 1.76223 cumulative IPC: 1.15697 (Simulation time: 3 hr 39 min 32 sec) 
Heartbeat CPU 0 instructions: 1670000004 cycles: 1174591719 heartbeat IPC: 1.75886 cumulative IPC: 1.16036 (Simulation time: 3 hr 40 min 34 sec) 
Heartbeat CPU 0 instructions: 1680000002 cycles: 1179945630 heartbeat IPC: 1.86779 cumulative IPC: 1.1641 (Simulation time: 3 hr 41 min 36 sec) 
Heartbeat CPU 0 instructions: 1690000004 cycles: 1185095870 heartbeat IPC: 1.94166 cumulative IPC: 1.16803 (Simulation time: 3 hr 42 min 39 sec) 
Heartbeat CPU 0 instructions: 1700000004 cycles: 1190339292 heartbeat IPC: 1.90715 cumulative IPC: 1.17181 (Simulation time: 3 hr 43 min 42 sec) 
Heartbeat CPU 0 instructions: 1710000001 cycles: 1195660683 heartbeat IPC: 1.87921 cumulative IPC: 1.17547 (Simulation time: 3 hr 44 min 43 sec) 
Heartbeat CPU 0 instructions: 1720000002 cycles: 1200979686 heartbeat IPC: 1.88005 cumulative IPC: 1.17909 (Simulation time: 3 hr 45 min 44 sec) 
Heartbeat CPU 0 instructions: 1730000002 cycles: 1206477962 heartbeat IPC: 1.81875 cumulative IPC: 1.18247 (Simulation time: 3 hr 46 min 46 sec) 
Heartbeat CPU 0 instructions: 1740000002 cycles: 1212273128 heartbeat IPC: 1.72558 cumulative IPC: 1.18548 (Simulation time: 3 hr 47 min 49 sec) 
Heartbeat CPU 0 instructions: 1750000000 cycles: 1218250880 heartbeat IPC: 1.67287 cumulative IPC: 1.18825 (Simulation time: 3 hr 48 min 54 sec) 
Heartbeat CPU 0 instructions: 1760000001 cycles: 1224542882 heartbeat IPC: 1.58932 cumulative IPC: 1.19064 (Simulation time: 3 hr 50 min 4 sec) 
Heartbeat CPU 0 instructions: 1770000000 cycles: 1230785266 heartbeat IPC: 1.60195 cumulative IPC: 1.19305 (Simulation time: 3 hr 51 min 14 sec) 
Heartbeat CPU 0 instructions: 1780000003 cycles: 1237204010 heartbeat IPC: 1.55794 cumulative IPC: 1.19523 (Simulation time: 3 hr 52 min 22 sec) 
Heartbeat CPU 0 instructions: 1790000001 cycles: 1243853247 heartbeat IPC: 1.50393 cumulative IPC: 1.19714 (Simulation time: 3 hr 53 min 29 sec) 
Heartbeat CPU 0 instructions: 1800000004 cycles: 1250527055 heartbeat IPC: 1.4984 cumulative IPC: 1.19899 (Simulation time: 3 hr 54 min 36 sec) 
Heartbeat CPU 0 instructions: 1810000001 cycles: 1256457001 heartbeat IPC: 1.68636 cumulative IPC: 1.20164 (Simulation time: 3 hr 55 min 38 sec) 
Heartbeat CPU 0 instructions: 1820000002 cycles: 1262194385 heartbeat IPC: 1.74295 cumulative IPC: 1.20448 (Simulation time: 3 hr 56 min 39 sec) 
Heartbeat CPU 0 instructions: 1830000004 cycles: 1267601035 heartbeat IPC: 1.84957 cumulative IPC: 1.20765 (Simulation time: 3 hr 57 min 39 sec) 
Heartbeat CPU 0 instructions: 1840000001 cycles: 1272703866 heartbeat IPC: 1.9597 cumulative IPC: 1.21111 (Simulation time: 3 hr 58 min 37 sec) 
Heartbeat CPU 0 instructions: 1850000002 cycles: 1277868600 heartbeat IPC: 1.93621 cumulative IPC: 1.21448 (Simulation time: 3 hr 59 min 36 sec) 
Heartbeat CPU 0 instructions: 1860000003 cycles: 1283308625 heartbeat IPC: 1.83823 cumulative IPC: 1.21752 (Simulation time: 4 hr 0 min 30 sec) 
Heartbeat CPU 0 instructions: 1870000004 cycles: 1288751991 heartbeat IPC: 1.8371 cumulative IPC: 1.22053 (Simulation time: 4 hr 1 min 25 sec) 
Heartbeat CPU 0 instructions: 1880000004 cycles: 1294415285 heartbeat IPC: 1.76576 cumulative IPC: 1.22326 (Simulation time: 4 hr 2 min 23 sec) 
Heartbeat CPU 0 instructions: 1890000004 cycles: 1300325823 heartbeat IPC: 1.69189 cumulative IPC: 1.22571 (Simulation time: 4 hr 3 min 24 sec) 
Heartbeat CPU 0 instructions: 1900000001 cycles: 1307500439 heartbeat IPC: 1.3938 cumulative IPC: 1.22676 (Simulation time: 4 hr 4 min 36 sec) 
Heartbeat CPU 0 instructions: 1910000000 cycles: 1315671247 heartbeat IPC: 1.22387 cumulative IPC: 1.22674 (Simulation time: 4 hr 5 min 58 sec) 
Heartbeat CPU 0 instructions: 1920000000 cycles: 1327926349 heartbeat IPC: 0.815987 cumulative IPC: 1.22241 (Simulation time: 4 hr 7 min 49 sec) 
Heartbeat CPU 0 instructions: 1930000003 cycles: 1339255740 heartbeat IPC: 0.88266 cumulative IPC: 1.21913 (Simulation time: 4 hr 9 min 45 sec) 
Heartbeat CPU 0 instructions: 1940000000 cycles: 1350569426 heartbeat IPC: 0.883885 cumulative IPC: 1.21592 (Simulation time: 4 hr 11 min 42 sec) 
Heartbeat CPU 0 instructions: 1950000003 cycles: 1359022715 heartbeat IPC: 1.18297 cumulative IPC: 1.21569 (Simulation time: 4 hr 13 min 22 sec) 
Heartbeat CPU 0 instructions: 1960000002 cycles: 1366326308 heartbeat IPC: 1.36919 cumulative IPC: 1.21662 (Simulation time: 4 hr 14 min 56 sec) 
Heartbeat CPU 0 instructions: 1970000004 cycles: 1373630655 heartbeat IPC: 1.36905 cumulative IPC: 1.21755 (Simulation time: 4 hr 16 min 29 sec) 
Heartbeat CPU 0 instructions: 1980000003 cycles: 1380933230 heartbeat IPC: 1.36938 cumulative IPC: 1.21846 (Simulation time: 4 hr 18 min 2 sec) 
Heartbeat CPU 0 instructions: 1990000004 cycles: 1390498727 heartbeat IPC: 1.04542 cumulative IPC: 1.21711 (Simulation time: 4 hr 19 min 47 sec) 
*** Reached end of trace: traces/481.wrf-1281B.champsimtrace.xz
Heartbeat CPU 0 instructions: 2000000001 cycles: 1402970809 heartbeat IPC: 0.801791 cumulative IPC: 1.21292 (Simulation time: 4 hr 21 min 48 sec) 
Finished CPU 0 instructions: 1500000001 cycles: 1236686189 cumulative IPC: 1.21292 (Simulation time: 4 hr 21 min 48 sec) 

ChampSim completed all CPUs

Region of Interest Statistics

CPU 0 cumulative IPC: 1.21292 instructions: 1500000001 cycles: 1236686189
cpu0_DTLB TOTAL     ACCESS:  320031717  HIT:  319820182  MISS:     211535
cpu0_DTLB LOAD      ACCESS:  274005094  HIT:  273823303  MISS:     181791
cpu0_DTLB RFO       ACCESS:   46026623  HIT:   45996879  MISS:      29744
cpu0_DTLB PREFETCH  ACCESS:          0  HIT:          0  MISS:          0
cpu0_DTLB WRITEBACK ACCESS:          0  HIT:          0  MISS:          0
cpu0_DTLB TRANSLATION ACCESS:          0  HIT:          0  MISS:          0
cpu0_DTLB PREFETCH  REQUESTED:          0  ISSUED:          0  USEFUL:          0  USELESS:          0
cpu0_DTLB AVERAGE MISS LATENCY: 60.913 cycles
cpu0_ITLB TOTAL     ACCESS:   36196487  HIT:   36196396  MISS:         91
cpu0_ITLB LOAD      ACCESS:   36196487  HIT:   36196396  MISS:         91
cpu0_ITLB RFO       ACCESS:          0  HIT:          0  MISS:          0
cpu0_ITLB PREFETCH  ACCESS:          0  HIT:          0  MISS:          0
cpu0_ITLB WRITEBACK ACCESS:          0  HIT:          0  MISS:          0
cpu0_ITLB TRANSLATION ACCESS:          0  HIT:          0  MISS:          0
cpu0_ITLB PREFETCH  REQUESTED:          0  ISSUED:          0  USEFUL:          0  USELESS:          0
cpu0_ITLB AVERAGE MISS LATENCY: 251.923 cycles
cpu0_L1I TOTAL     ACCESS:   26997948  HIT:   26994803  MISS:       3145
cpu0_L1I LOAD      ACCESS:   26997948  HIT:   26994803  MISS:       3145
cpu0_L1I RFO       ACCESS:          0  HIT:          0  MISS:          0
cpu0_L1I PREFETCH  ACCESS:          0  HIT:          0  MISS:          0
cpu0_L1I WRITEBACK ACCESS:          0  HIT:          0  MISS:          0
cpu0_L1I TRANSLATION ACCESS:          0  HIT:          0  MISS:          0
cpu0_L1I PREFETCH  REQUESTED:          0  ISSUED:          0  USEFUL:          0  USELESS:          0
cpu0_L1I AVERAGE MISS LATENCY: 333.142 cycles
cpu0_STLB TOTAL     ACCESS:     211626  HIT:     101594  MISS:     110032
cpu0_STLB LOAD      ACCESS:     181882  HIT:      92357  MISS:      89525
cpu0_STLB RFO       ACCESS:      29744  HIT:       9237  MISS:      20507
cpu0_STLB PREFETCH  ACCESS:          0  HIT:          0  MISS:          0
cpu0_STLB WRITEBACK ACCESS:          0  HIT:          0  MISS:          0
cpu0_STLB TRANSLATION ACCESS:          0  HIT:          0  MISS:          0
cpu0_STLB PREFETCH  REQUESTED:          0  ISSUED:          0  USEFUL:          0  USELESS:          0
cpu0_STLB AVERAGE MISS LATENCY: 99.9544 cycles
cpu0_L1D TOTAL     ACCESS:  283169125  HIT:  271158831  MISS:   12010294
cpu0_L1D LOAD      ACCESS:  211386632  HIT:  201303225  MISS:   10083407
cpu0_L1D RFO       ACCESS:   71677705  HIT:   69760253  MISS:    1917452
cpu0_L1D PREFETCH  ACCESS:          0  HIT:          0  MISS:          0
cpu0_L1D WRITEBACK ACCESS:          0  HIT:          0  MISS:          0
cpu0_L1D TRANSLATION ACCESS:     104788  HIT:      95353  MISS:       9435
cpu0_L1D PREFETCH  REQUESTED:          0  ISSUED:          0  USEFUL:          0  USELESS:          0
cpu0_L1D AVERAGE MISS LATENCY: 211.41 cycles
cpu0_L2C TOTAL     ACCESS:   15860570  HIT:    7552404  MISS:    8308166
cpu0_L2C LOAD      ACCESS:   10086461  HIT:    3241085  MISS:    6845376
cpu0_L2C RFO       ACCESS:    1917418  HIT:     464649  MISS:    1452769
cpu0_L2C PREFETCH  ACCESS:          0  HIT:          0  MISS:          0
cpu0_L2C WRITEBACK ACCESS:    3847256  HIT:    3838298  MISS:       8958
cpu0_L2C TRANSLATION ACCESS:       9435  HIT:       8372  MISS:       1063
cpu0_L2C PREFETCH  REQUESTED:          0  ISSUED:          0  USEFUL:          0  USELESS:          0
cpu0_L2C AVERAGE MISS LATENCY: 289.8 cycles
LLC TOTAL     ACCESS:   11547617  HIT:    3311871  MISS:    8235746
LLC LOAD      ACCESS:    6845373  HIT:      36245  MISS:    6809128
LLC RFO       ACCESS:    1452769  HIT:      40453  MISS:    1412316
LLC PREFETCH  ACCESS:          0  HIT:          0  MISS:          0
LLC WRITEBACK ACCESS:    3248412  HIT:    3234652  MISS:      13760
LLC TRANSLATION ACCESS:       1063  HIT:        521  MISS:        542
LLC PREFETCH  REQUESTED:          0  ISSUED:          0  USEFUL:          0  USELESS:          0
LLC AVERAGE MISS LATENCY: 271.187 cycles
~~~~~~~~~~Reuse Distance Profiler output~~~~~~~~~~
0	38757392	12059824
1	32895520	15883328
2	31037520	21072912
3	37019648	27736512
4	34723568	28392416
5	30237088	24739648
6	21296384	18537504
7	21853344	19130384
8	22596464	19565248
9	17973296	16227312
10	10905648	9633104
11	7277632	6406432
12	7364048	6600944
13	5619568	4967536
14	5907520	5363424
15	8692896	8004800
16	3966160	3546080
17	3092832	2644160
18	2594464	1928256
19	2872224	2497104
20	2606816	2260992
21	2257696	1919088
22	3149024	2684624
23	3472656	2548480
24	4331056	3602784
25	5497024	4653776
26	6389440	5476288
27	3291248	2570784
28	2374368	1824944
29	2387696	2058912
30	2176848	2001296
31	2314032	2025584
32	2538016	2431392
33	9034560	8882256
34	4332192	3801552
35	2501904	2383456
36	2642672	2124320
37	2654368	2429392
38	2348000	2224816
39	2863792	2727584
40	1398592	1213744
41	805008	689728
42	690944	636432
43	495408	441536
44	213568	165088
45	277216	214848
46	160224	114224
47	102528	83808
48	99936	76032
49	82368	67344
50	111408	89744
51	433088	419136
52	116720	67248
53	208800	185936
54	100640	81696
55	297520	283040
56	72432	56528
57	47008	40640
58	41872	36864
59	46720	41232
60	62080	55184
61	49088	42240
62	57200	48048
63	47968	41792
64	61408	50928
66	80640	67728
68	60672	45920
70	86368	72416
72	60784	47728
74	110800	93104
76	521424	467664
78	2904752	2650272
80	4595776	4181344
82	740912	667536
84	108512	102048
86	70464	63760
88	37008	31104
90	26976	22864
92	38144	27440
94	45840	37776
96	20544	18560
98	13888	11664
100	15776	11888
102	33408	17360
104	24400	18080
106	32512	26112
108	28624	25024
110	26640	22736
112	23072	18720
114	38736	33792
116	30832	23504
118	26512	21376
120	24064	19744
122	21632	15312
124	22656	15952
126	39248	32592
128	82096	70144
132	53744	50352
136	60560	58192
140	75920	74416
144	85728	82560
148	72976	71472
152	73376	71600
156	75632	73664
160	78032	76128
164	63872	61680
168	58272	55952
172	43264	42240
176	41920	41200
180	37136	36480
184	28480	27040
188	25552	24752
192	29008	26784
196	33632	32368
200	27264	26384
204	25712	24928
208	22208	21376
212	23120	22544
216	28688	28000
220	34016	33152
224	44976	44464
228	50080	48416
232	46736	45936
236	45856	45280
240	38816	38384
244	41904	41408
248	43376	42912
252	46096	45392
256	93952	92640
264	102144	100912
272	112816	111664
280	136080	135184
288	155264	154096
296	152224	150672
304	128720	127520
312	115264	114272
320	106800	105760
328	115408	114416
336	78336	77312
344	50400	49776
352	46032	45104
360	44144	43536
368	42432	42160
376	29744	29680
384	29408	29104
392	26960	26784
400	30576	30400
408	45376	45184
416	34544	34336
424	23760	23552
432	30064	29872
440	49264	49152
448	77488	77088
456	79552	79408
464	101712	101504
472	83472	83280
480	66560	66272
488	70336	70128
496	97920	97776
504	134592	134384
512	332240	331680
528	367072	366800
544	324512	324144
560	335344	335312
576	333072	333056
592	245184	245136
608	167392	167344
624	175216	175168
640	250464	250352
656	215136	215040
672	143440	143360
688	265840	265776
704	81392	81040
720	40000	39712
736	42512	42288
752	108016	107872
768	101824	101712
784	61680	60320
800	121424	121056
816	74160	74096
832	79376	79360
848	100048	100032
864	35696	35616
880	41312	41264
896	81920	81856
912	202784	202448
928	158784	158496
944	48096	48096
960	29872	29808
976	49168	49072
992	30848	30640
1008	84832	84608
1024	178112	177648
1056	115280	115088
1088	48608	48352
1120	9216	9136
1152	59232	59168
1184	234992	234976
1216	33440	33424
1248	91920	91520
1280	93504	93488
1312	137936	137904
1344	15808	15648
1376	78144	77952
1408	42688	42352
1440	8640	8288
1472	5104	4816
1504	26976	26656
1536	37360	37216
1568	32992	32880
1600	4016	3968
1632	3488	3488
1664	15728	15680
1696	41072	41056
1728	41744	41728
1760	3968	3952
1792	3152	3120
1824	35216	35200
1856	120144	120128
1888	8176	8096
1920	16800	16784
1952	13552	13456
1984	6112	5968
2016	3328	3200
2048	80704	80560
2112	2640	2352
2176	2720	2512
2240	2496	2464
2304	2448	2416
2368	2304	2288
2432	2560	2512
2496	3664	3664
2560	2048	1920
2624	9776	9344
2688	18416	18272
2752	74624	74400
2816	87344	86928
2880	16640	16560
2944	12720	12656
3008	103728	103552
3072	217136	216688
3136	43744	43328
3200	28832	28544
3264	15568	14880
3328	25856	25440
3392	63984	63248
3456	74880	74816
3520	27040	26944
3584	6272	5456
3648	8080	7936
3712	3552	3424
3776	6432	6144
3840	12256	12256
3904	102320	102096
3968	409248	409088
4032	19088	18928
4096	48656	48640
4224	62304	61680
4352	154624	153216
4480	117776	115936
4608	15104	13792
4736	15232	14752
4864	36960	35936
4992	49936	49376
5120	8608	7888
5248	5328	4528
5376	2352	1584
5504	5200	3456
5632	4320	3440
5760	4416	3888
5888	4496	3424
6016	3328	2960
6144	4032	3664
6272	4032	3344
6400	3984	3376
6528	3456	2848
6656	4640	4288
6784	4560	4432
6912	5280	4672
7040	18256	16896
7168	9968	7168
7296	22448	21392
7424	9760	4576
7552	7040	5200
7680	6688	5312
7808	8960	5632
7936	13328	6576
8064	14080	8512
8192	27152	16304
8448	37952	26576
8704	31072	20816
8960	35280	24880
9216	45168	33216
9472	89888	76192
9728	29984	18128
9984	27696	16832
10240	42384	31920
10496	22608	11760
10752	53360	42096
11008	27456	16336
11264	30272	18864
11520	25888	16144
11776	29936	18016
12032	31872	21520
12288	30000	19456
12544	28768	18336
12800	29712	20112
13056	31600	21152
13312	37536	27792
13568	38480	28000
13824	41664	29632
14080	45728	32912
14336	40144	28160
14592	43280	32576
14848	37936	29504
15104	42800	32640
15360	43280	33296
15616	50032	33904
15872	66032	40048
16128	71984	40352
16384	163952	93824
16896	173808	103840
17408	144528	89104
17920	110448	73568
18432	91744	59968
18944	69264	51328
19456	56688	41136
19968	58544	42448
20480	54640	38624
20992	230000	213168
21504	54224	38624
22016	53504	37056
22528	59472	41680
23040	46656	28208
23552	47680	30224
24064	46176	29424
24576	46640	31744
25088	42352	28752
25600	53104	40464
26112	37632	26368
26624	37120	24720
27136	34208	21952
27648	31984	23776
28160	28960	21392
28672	23168	16208
29184	22000	16528
29696	19888	14944
30208	18192	13408
30720	18560	13712
31232	17376	12416
31744	30080	25568
32256	31136	26512
32768	40064	30400
33792	58288	48320
34816	55184	46768
35840	20800	14672
36864	19024	13280
37888	18720	13024
38912	16624	11520
39936	21424	14656
40960	430288	424864
41984	363600	358224
43008	369264	363728
44032	111920	105712
45056	16864	10352
46080	19632	12912
47104	30864	23504
48128	215232	208240
49152	169216	163616
50176	18288	11840
51200	21792	15904
52224	178192	172576
53248	16880	11440
54272	13312	8576
55296	16240	10416
56320	14640	8944
57344	11824	7360
58368	11664	7264
59392	40608	36224
60416	38240	34240
61440	11856	6992
62464	12096	7232
63488	11024	7056
64512	10192	6272
65536	18560	12192
67584	18368	12672
69632	21760	16656
71680	24096	18288
73728	20464	15456
75776	19056	13024
77824	18464	12992
79872	19280	13840
81920	18736	13200
83968	21472	13648
86016	20688	15312
88064	45088	40336
90112	19872	15248
92160	242624	237760
94208	18720	13856
96256	17440	12704
98304	17280	12896
100352	79920	69920
102400	30544	15952
104448	26880	12448
106496	26240	11008
108544	25680	10416
110592	33248	21328
112640	26336	22304
114688	69536	65424
116736	27840	24384
118784	26880	23184
120832	11520	7664
122880	68896	63600
124928	9312	5376
126976	62304	58448
129024	233616	230144
131072	17632	10640
135168	17392	10752
139264	15104	7808
143360	11072	5952
147456	9392	5040
151552	9712	5360
155648	6080	1424
159744	5568	976
163840	7232	1248
167936	11088	2544
172032	22032	4688
176128	35264	1216
180224	42144	16144
184320	109472	89872
188416	23488	19184
192512	5632	1264
196608	5744	1200
200704	4704	192
204800	704	224
208896	2512	2512
212992	2384	2384
217088	3712	3696
221184	5616	2800
225280	7680	2752
229376	7648	2544
233472	8272	2992
237568	8000	3552
241664	6208	2352
245760	2528	2528
249856	3120	3104
253952	4480	4464
258048	6672	6656
262144	6768	6768
270336	5264	5248
278528	4720	4720
286720	5872	5872
294912	4960	4944
303104	5008	5008
311296	6672	6672
319488	5344	5344
327680	4624	4608
335872	5968	5968
344064	4896	4896
352256	4992	4992
360448	6288	6256
368640	4288	4288
376832	4128	4128
385024	5808	5808
393216	4880	4880
401408	4816	4816
409600	6032	6032
417792	4560	4560
425984	4608	4608
434176	5888	5888
442368	4880	4880
450560	4976	4976
458752	5552	5552
466944	4592	4592
475136	4784	4784
483328	6064	6064
491520	4480	4464
499712	4752	4752
507904	5600	5600
516096	4656	4656
524288	10080	10032
540672	21584	21584
557056	43920	43920
573440	48992	48992
589824	50272	50272
606208	17760	17728
622592	2960	2960
638976	2064	2064
655360	2816	2784
671744	3072	3072
688128	1968	1968
704512	3440	3440
720896	3360	3360
737280	3408	3392
753664	3760	3760
770048	3456	3456
786432	2608	2560
802816	3216	3184
819200	2784	2784
835584	2976	2976
851968	3024	2992
868352	2976	2976
884736	3648	3616
901120	5264	5248
917504	3424	3424
933888	3616	3600
950272	2608	2576
966656	3888	3888
983040	4080	4080
999424	3264	3248
1015808	5728	5664
1032192	3840	3840
1048576	9248	9200
1081344	8512	8480
1114112	9232	9216
1146880	8640	8624
1179648	25776	8800
1212416	40576	9216
1245184	37504	9072
1277952	33856	9312
1310720	29232	6384
1343488	22592	5936
1376256	6384	6016
1409024	9632	5744
1441792	8608	6576
1474560	8128	6080
1507328	8944	6544
1540096	8224	6000
1572864	8384	5840
1605632	8224	6416
1638400	8384	6032
1671168	8368	6304
1703936	11376	8912
1736704	11200	9232
1769472	10624	8656
1802240	13024	10544
1835008	11024	8960
1867776	10336	7888
1900544	10832	9184
1933312	12656	10336
1966080	13488	11536
1998848	15056	12672
2031616	20944	18576
2064384	24240	22224
2097152	49136	44320
2162688	48816	44560
2228224	49328	45248
2293760	41424	37632
2359296	72768	68048
2424832	36992	32512
2490368	38464	33712
2555904	39136	34272
2621440	199664	195344
2686976	20160	15904
2752512	19600	15424
2818048	19680	15840
2883584	21200	16240
2949120	24272	19856
3014656	28128	23520
3080192	26704	22032
3145728	31424	26528
3211264	39616	34944
3276800	39248	34832
3342336	38080	34208
3407872	38656	34592
3473408	41744	37456
3538944	39600	35456
3604480	42992	38256
3670016	42432	38320
3735552	44192	40336
3801088	44736	40064
3866624	43216	38432
3932160	45920	41312
3997696	50400	49744
4063232	53664	53584
4128768	64272	63968
4194304	122080	121984
4325376	101264	101184
4456448	88880	88400
4587520	84752	83936
4718592	85488	85488
4849664	83056	83056
4980736	85168	85168
5111808	55296	55232
5242880	43072	43056
5373952	36384	36384
5505024	34992	34992
5636096	35616	35616
5767168	33072	33072
5898240	26624	26624
6029312	24272	24272
6160384	22368	22368
6291456	17296	17296
6422528	16416	16032
6553600	21824	21568
6684672	18528	18528
6815744	9568	9568
6946816	10544	10544
7077888	9648	9648
7208960	10000	10000
7340032	8944	8944
7471104	9264	9264
7602176	10688	10688
7733248	11536	11536
7864320	12896	12896
7995392	11392	11392
8126464	11488	11488
8257536	14736	14448
8388608	24416	24112
8650752	31088	28672
8912896	33264	32336
9175040	33680	33504
9437184	37344	37088
9699328	36560	35120
9961472	30880	30880
10223616	30800	29984
10485760	30416	30160
10747904	24112	23264
11010048	23440	23216
11272192	26096	25936
11534336	27120	27120
11796480	27104	27104
12058624	24256	24256
12320768	30400	27504
12582912	81328	50576
12845056	114720	51760
13107200	89120	46640
13369344	41072	40016
13631488	49632	49440
13893632	394928	391200
14155776	171792	169104
14417920	85984	85744
14680064	44816	44704
14942208	52320	52256
15204352	71776	71376
15466496	39392	38880
15728640	38832	37760
15990784	35008	33872
16252928	33744	32944
16515072	39696	37440
16777216	78144	72864
17301504	74896	69648
17825792	76368	71536
18350080	74592	69504
18874368	71472	65808
19398656	56272	54816
19922944	53040	53040
20447232	51312	51312
20971520	50944	50944
21495808	50192	50192
22020096	47488	47488
22544384	48352	48352
23068672	53888	53872
23592960	52656	52656
24117248	34016	33968
24641536	18576	18576
25165824	19184	19184
25690112	17280	17280
26214400	16880	16880
26738688	17136	17136
27262976	25056	25008
27787264	32880	32880
28311552	35344	35264
28835840	41584	41568
29360128	17616	17616
29884416	20640	20640
30408704	42784	42784
30932992	54544	54544
31457280	17088	17088
31981568	17680	17680
32505856	38736	38736
33030144	14240	14240
33554432	21856	21856
34603008	27296	27296
35651584	24896	24880
36700160	24320	24320
37748736	25888	25872
38797312	32416	32416
39845888	26176	26144
40894464	28752	28640
41943040	46912	46896
42991616	37456	37456
44040192	43824	43824
45088768	38688	38672
46137344	26896	26896
47185920	21648	21456
48234496	18048	15504
49283072	15264	10816
50331648	11728	8064
51380224	12688	7824
52428800	18784	12320
53477376	19728	11424
54525952	19328	12640
55574528	40960	34976
56623104	48048	42032
57671680	65968	58816
58720256	59536	50912
59768832	47856	38640
60817408	15936	7712
61865984	12144	7408
62914560	17344	12656
63963136	28032	23888
65011712	34528	25520
66060288	26448	18768
67108864	43376	26080
69206016	83456	66592
71303168	50720	35712
73400320	39264	24560
75497472	39264	29712
77594624	25952	22560
79691776	21808	20016
81788928	34112	32016
83886080	66896	64944
85983232	51280	49296
88080384	49136	46992
90177536	77936	76704
92274688	101568	99600
94371840	105184	102160
96468992	115056	111024
98566144	199984	195920
100663296	26000	21840
102760448	52096	48208
104857600	82112	78048
106954752	125392	121184
109051904	13184	9392
111149056	41376	37968
113246208	8384	4672
115343360	8272	4528
117440512	11216	7376
119537664	12544	8544
121634816	25712	21472
123731968	62720	49312
125829120	61088	35728
127926272	10448	10448
130023424	7984	7984
132120576	6224	4480
134217728	97616	7008
138412032	75936	16
142606336	32880	2928
146800640	19232	5632
150994944	19056	4896
155189248	22496	8320
159383552	23808	9456
163577856	21376	11344
167772160	11072	7664
171966464	8048	5616
176160768	24048	720
180355072	1632	1328
184549376	3184	0
188743680	28880	688
192937984	24416	352
197132288	22992	0
201326592	19392	0
205520896	10464	0
209715200	10224	0
213909504	40240	30944
218103808	11984	112
222298112	4736	0
226492416	4320	0
230686720	1392	1232
234881024	0	0
239075328	0	0
243269632	2032	2032
247463936	0	0
251658240	0	0
255852544	0	0
260046848	0	0
264241152	0	0
268435456	0	0
276824064	0	0
285212672	0	0
293601280	0	0
301989888	0	0
310378496	0	0
318767104	0	0
327155712	0	0
335544320	800	0
343932928	0	0
352321536	16	16
360710144	0	0
369098752	0	0
377487360	0	0
385875968	0	0
394264576	0	0
402653184	0	0
411041792	0	0
419430400	0	0
427819008	0	0
436207616	0	0
444596224	0	0
452984832	0	0
461373440	0	0
469762048	0	0
478150656	0	0
486539264	0	0
494927872	0	0
503316480	0	0
511705088	0	0
520093696	0	0
528482304	0	0
536870912	0	0
553648128	0	0
570425344	0	0
587202560	0	0
603979776	0	0
620756992	0	0
637534208	0	0
654311424	0	0
671088640	0	0
687865856	0	0
704643072	0	0
721420288	0	0
738197504	0	0
754974720	0	0
771751936	0	0
788529152	0	0
805306368	0	0
822083584	0	0
838860800	0	0
855638016	0	0
872415232	0	0
889192448	0	0
905969664	0	0
922746880	0	0
939524096	0	0
956301312	0	0
973078528	0	0
989855744	0	0
1006632960	0	0
1023410176	0	0
1040187392	0	0
1056964608	0	0
1073741824	0	0
1107296256	0	0
1140850688	0	0
1174405120	0	0
1207959552	0	0
1241513984	0	0
1275068416	0	0
1308622848	0	0
1342177280	0	0
1375731712	0	0
1409286144	0	0
1442840576	0	0
1476395008	0	0
1509949440	0	0
1543503872	0	0
1577058304	0	0
1610612736	0	0
1644167168	0	0
1677721600	0	0
1711276032	0	0
1744830464	0	0
1778384896	0	0
1811939328	0	0
1845493760	0	0
1879048192	0	0
1912602624	0	0
1946157056	0	0
1979711488	0	0
2013265920	0	0
2046820352	0	0
2080374784	0	0
2113929216	0	0
2147483648	0	0
2214592512	0	0
2281701376	0	0
2348810240	0	0
2415919104	0	0
2483027968	0	0
2550136832	0	0
2617245696	0	0
2684354560	0	0
2751463424	0	0
2818572288	0	0
2885681152	0	0
2952790016	0	0
3019898880	0	0
3087007744	0	0
3154116608	0	0
3221225472	0	0
3288334336	0	0
3355443200	0	0
3422552064	0	0
3489660928	0	0
3556769792	0	0
3623878656	0	0
3690987520	0	0
3758096384	0	0
3825205248	0	0
3892314112	0	0
3959422976	0	0
4026531840	0	0
4093640704	0	0
4160749568	0	0
4227858432	0	0
~~~~~~~~~~Reuse Distance Profiler output end~~~~~~~~~~

DRAM Statistics
 CHANNEL 0
 RQ ROW_BUFFER_HIT:     524543  ROW_BUFFER_MISS:    7697178
 DBUS AVG_CONGESTED_CYCLE:    3.96669
 WQ ROW_BUFFER_HIT:     403066  ROW_BUFFER_MISS:    2795634  FULL:          0


CPU 0 Branch Prediction Accuracy: 96.0644% MPKI: 2.40261 Average ROB Occupancy at Mispredict: 253.716
Branch type MPKI
BRANCH_DIRECT_JUMP: 0.000128
BRANCH_INDIRECT: 0
BRANCH_CONDITIONAL: 2.40236
BRANCH_DIRECT_CALL: 6.73333e-05
BRANCH_INDIRECT_CALL: 0
BRANCH_RETURN: 5.66667e-05

