
*** ChampSim Multicore Out-of-Order Simulator ***

Warmup Instructions: 500000000
Simulation Instructions: 1500000000
Number of CPUs: 1
Off-chip DRAM Size: 4 GiB Channels: 1 Width: 64-bit Data Rate: 3200 MT/s

VirtualMemory physical capacity: 8588881920 num_ppages: 2096895
VirtualMemory page size: 4096 log2_page_size: 12

CPU 0 runs traces/481.wrf-816B.champsimtrace.xz
CPU 0 Bimodal branch predictor
Basic BTB sets: 1024 ways: 8 indirect buffer size: 4096 RAS size: 64
Initializing LRU.
Initializing LRU.
Initializing LRU.
Initializing LRU.
Initializing rdLRU.
Initializing LRU.
Initializing LRU.
Heartbeat CPU 0 instructions: 10000003 cycles: 3738118 heartbeat IPC: 2.67514 cumulative IPC: 2.67514 (Simulation time: 0 hr 1 min 16 sec) 
Heartbeat CPU 0 instructions: 20000002 cycles: 6654025 heartbeat IPC: 3.42946 cumulative IPC: 3.0057 (Simulation time: 0 hr 2 min 14 sec) 
Heartbeat CPU 0 instructions: 30000001 cycles: 9242141 heartbeat IPC: 3.86381 cumulative IPC: 3.246 (Simulation time: 0 hr 3 min 4 sec) 
Heartbeat CPU 0 instructions: 40000001 cycles: 11742141 heartbeat IPC: 4 cumulative IPC: 3.40653 (Simulation time: 0 hr 3 min 42 sec) 
Heartbeat CPU 0 instructions: 50000003 cycles: 14321269 heartbeat IPC: 3.87728 cumulative IPC: 3.49131 (Simulation time: 0 hr 4 min 15 sec) 
Heartbeat CPU 0 instructions: 60000002 cycles: 17201450 heartbeat IPC: 3.472 cumulative IPC: 3.48808 (Simulation time: 0 hr 5 min 3 sec) 
Heartbeat CPU 0 instructions: 70000001 cycles: 20426709 heartbeat IPC: 3.10053 cumulative IPC: 3.42689 (Simulation time: 0 hr 6 min 2 sec) 
Heartbeat CPU 0 instructions: 80000000 cycles: 24363193 heartbeat IPC: 2.54034 cumulative IPC: 3.28364 (Simulation time: 0 hr 7 min 14 sec) 
Heartbeat CPU 0 instructions: 90000001 cycles: 28746534 heartbeat IPC: 2.28137 cumulative IPC: 3.13081 (Simulation time: 0 hr 8 min 42 sec) 
Heartbeat CPU 0 instructions: 100000003 cycles: 31985452 heartbeat IPC: 3.08745 cumulative IPC: 3.12642 (Simulation time: 0 hr 9 min 37 sec) 
Heartbeat CPU 0 instructions: 110000003 cycles: 34935951 heartbeat IPC: 3.38926 cumulative IPC: 3.14862 (Simulation time: 0 hr 10 min 38 sec) 
Heartbeat CPU 0 instructions: 120000003 cycles: 37783311 heartbeat IPC: 3.51203 cumulative IPC: 3.17601 (Simulation time: 0 hr 11 min 29 sec) 
Heartbeat CPU 0 instructions: 130000000 cycles: 40895083 heartbeat IPC: 3.2136 cumulative IPC: 3.17887 (Simulation time: 0 hr 12 min 22 sec) 
Heartbeat CPU 0 instructions: 140000000 cycles: 43770557 heartbeat IPC: 3.47769 cumulative IPC: 3.1985 (Simulation time: 0 hr 13 min 12 sec) 
Heartbeat CPU 0 instructions: 150000000 cycles: 46270557 heartbeat IPC: 4 cumulative IPC: 3.2418 (Simulation time: 0 hr 13 min 50 sec) 
Heartbeat CPU 0 instructions: 160000002 cycles: 48870769 heartbeat IPC: 3.84584 cumulative IPC: 3.27394 (Simulation time: 0 hr 14 min 25 sec) 
Heartbeat CPU 0 instructions: 170000002 cycles: 51370769 heartbeat IPC: 4 cumulative IPC: 3.30927 (Simulation time: 0 hr 15 min 1 sec) 
Heartbeat CPU 0 instructions: 180000000 cycles: 54270145 heartbeat IPC: 3.44902 cumulative IPC: 3.31674 (Simulation time: 0 hr 15 min 46 sec) 
Heartbeat CPU 0 instructions: 190000000 cycles: 58723184 heartbeat IPC: 2.24566 cumulative IPC: 3.23552 (Simulation time: 0 hr 17 min 48 sec) 
Heartbeat CPU 0 instructions: 200000000 cycles: 63153473 heartbeat IPC: 2.25719 cumulative IPC: 3.16689 (Simulation time: 0 hr 19 min 36 sec) 
Heartbeat CPU 0 instructions: 210000002 cycles: 67560721 heartbeat IPC: 2.26899 cumulative IPC: 3.10831 (Simulation time: 0 hr 21 min 1 sec) 
Heartbeat CPU 0 instructions: 220000002 cycles: 72013739 heartbeat IPC: 2.24567 cumulative IPC: 3.05497 (Simulation time: 0 hr 22 min 19 sec) 
Heartbeat CPU 0 instructions: 230000001 cycles: 76450251 heartbeat IPC: 2.25402 cumulative IPC: 3.00849 (Simulation time: 0 hr 23 min 41 sec) 
Heartbeat CPU 0 instructions: 240000002 cycles: 80593442 heartbeat IPC: 2.4136 cumulative IPC: 2.97791 (Simulation time: 0 hr 25 min 7 sec) 
Heartbeat CPU 0 instructions: 250000000 cycles: 83658846 heartbeat IPC: 3.26221 cumulative IPC: 2.98833 (Simulation time: 0 hr 26 min 9 sec) 
Heartbeat CPU 0 instructions: 260000004 cycles: 86726078 heartbeat IPC: 3.26027 cumulative IPC: 2.99794 (Simulation time: 0 hr 26 min 53 sec) 
Heartbeat CPU 0 instructions: 270000001 cycles: 89794184 heartbeat IPC: 3.25934 cumulative IPC: 3.00688 (Simulation time: 0 hr 27 min 50 sec) 
Heartbeat CPU 0 instructions: 280000003 cycles: 92864753 heartbeat IPC: 3.25673 cumulative IPC: 3.01514 (Simulation time: 0 hr 28 min 57 sec) 
Heartbeat CPU 0 instructions: 290000000 cycles: 96315080 heartbeat IPC: 2.89828 cumulative IPC: 3.01095 (Simulation time: 0 hr 30 min 27 sec) 
Heartbeat CPU 0 instructions: 300000003 cycles: 99965070 heartbeat IPC: 2.73973 cumulative IPC: 3.00105 (Simulation time: 0 hr 31 min 51 sec) 
Heartbeat CPU 0 instructions: 310000001 cycles: 103613545 heartbeat IPC: 2.74087 cumulative IPC: 2.99189 (Simulation time: 0 hr 32 min 57 sec) 
Heartbeat CPU 0 instructions: 320000002 cycles: 107159819 heartbeat IPC: 2.81986 cumulative IPC: 2.98619 (Simulation time: 0 hr 33 min 53 sec) 
Heartbeat CPU 0 instructions: 330000003 cycles: 109719803 heartbeat IPC: 3.90627 cumulative IPC: 3.00766 (Simulation time: 0 hr 34 min 39 sec) 
Heartbeat CPU 0 instructions: 340000000 cycles: 112343492 heartbeat IPC: 3.81143 cumulative IPC: 3.02643 (Simulation time: 0 hr 35 min 30 sec) 
Heartbeat CPU 0 instructions: 350000001 cycles: 114967231 heartbeat IPC: 3.81136 cumulative IPC: 3.04435 (Simulation time: 0 hr 36 min 17 sec) 
Heartbeat CPU 0 instructions: 360000002 cycles: 117813783 heartbeat IPC: 3.51302 cumulative IPC: 3.05567 (Simulation time: 0 hr 37 min 28 sec) 
Heartbeat CPU 0 instructions: 370000003 cycles: 120501879 heartbeat IPC: 3.72011 cumulative IPC: 3.07049 (Simulation time: 0 hr 38 min 18 sec) 
Heartbeat CPU 0 instructions: 380000003 cycles: 123488784 heartbeat IPC: 3.34795 cumulative IPC: 3.0772 (Simulation time: 0 hr 39 min 25 sec) 
Heartbeat CPU 0 instructions: 390000002 cycles: 126480386 heartbeat IPC: 3.34269 cumulative IPC: 3.08348 (Simulation time: 0 hr 40 min 16 sec) 
Heartbeat CPU 0 instructions: 400000000 cycles: 129460402 heartbeat IPC: 3.35569 cumulative IPC: 3.08975 (Simulation time: 0 hr 41 min 11 sec) 
Heartbeat CPU 0 instructions: 410000000 cycles: 132442028 heartbeat IPC: 3.35387 cumulative IPC: 3.09569 (Simulation time: 0 hr 42 min 5 sec) 
Heartbeat CPU 0 instructions: 420000001 cycles: 135432530 heartbeat IPC: 3.34392 cumulative IPC: 3.10118 (Simulation time: 0 hr 42 min 52 sec) 
Heartbeat CPU 0 instructions: 430000001 cycles: 138417832 heartbeat IPC: 3.34974 cumulative IPC: 3.10654 (Simulation time: 0 hr 43 min 44 sec) 
Heartbeat CPU 0 instructions: 440000001 cycles: 141397439 heartbeat IPC: 3.35615 cumulative IPC: 3.1118 (Simulation time: 0 hr 44 min 38 sec) 
Heartbeat CPU 0 instructions: 450000001 cycles: 144382041 heartbeat IPC: 3.35053 cumulative IPC: 3.11673 (Simulation time: 0 hr 45 min 47 sec) 
Heartbeat CPU 0 instructions: 460000003 cycles: 147135339 heartbeat IPC: 3.63201 cumulative IPC: 3.12637 (Simulation time: 0 hr 46 min 45 sec) 
Heartbeat CPU 0 instructions: 470000003 cycles: 149635339 heartbeat IPC: 4 cumulative IPC: 3.14097 (Simulation time: 0 hr 47 min 32 sec) 
Heartbeat CPU 0 instructions: 480000003 cycles: 152610497 heartbeat IPC: 3.36117 cumulative IPC: 3.14526 (Simulation time: 0 hr 48 min 21 sec) 
Heartbeat CPU 0 instructions: 490000001 cycles: 157030156 heartbeat IPC: 2.26262 cumulative IPC: 3.12042 (Simulation time: 0 hr 49 min 48 sec) 
Heartbeat CPU 0 instructions: 500000001 cycles: 161483195 heartbeat IPC: 2.24566 cumulative IPC: 3.0963 (Simulation time: 0 hr 51 min 31 sec) 

Warmup complete CPU 0 instructions: 500000001 cycles: 161483195 (Simulation time: 0 hr 51 min 31 sec) 

Heartbeat CPU 0 instructions: 510000002 cycles: 167483810 heartbeat IPC: 1.6665 cumulative IPC: 1.6665 (Simulation time: 0 hr 52 min 47 sec) 
Heartbeat CPU 0 instructions: 520000001 cycles: 173487151 heartbeat IPC: 1.66574 cumulative IPC: 1.66612 (Simulation time: 0 hr 54 min 2 sec) 
Heartbeat CPU 0 instructions: 530000001 cycles: 179565441 heartbeat IPC: 1.6452 cumulative IPC: 1.65909 (Simulation time: 0 hr 55 min 51 sec) 
Heartbeat CPU 0 instructions: 540000003 cycles: 185489351 heartbeat IPC: 1.68807 cumulative IPC: 1.66624 (Simulation time: 0 hr 57 min 23 sec) 
Heartbeat CPU 0 instructions: 550000000 cycles: 190784214 heartbeat IPC: 1.88862 cumulative IPC: 1.70643 (Simulation time: 0 hr 58 min 29 sec) 
Heartbeat CPU 0 instructions: 560000003 cycles: 196080719 heartbeat IPC: 1.88804 cumulative IPC: 1.73423 (Simulation time: 0 hr 59 min 39 sec) 
Heartbeat CPU 0 instructions: 570000002 cycles: 201387730 heartbeat IPC: 1.8843 cumulative IPC: 1.75419 (Simulation time: 1 hr 0 min 43 sec) 
Heartbeat CPU 0 instructions: 580000001 cycles: 206664214 heartbeat IPC: 1.8952 cumulative IPC: 1.77066 (Simulation time: 1 hr 1 min 47 sec) 
Heartbeat CPU 0 instructions: 590000004 cycles: 214534286 heartbeat IPC: 1.27064 cumulative IPC: 1.69648 (Simulation time: 1 hr 3 min 16 sec) 
Heartbeat CPU 0 instructions: 600000001 cycles: 222411760 heartbeat IPC: 1.26944 cumulative IPC: 1.64127 (Simulation time: 1 hr 5 min 16 sec) 
Heartbeat CPU 0 instructions: 610000002 cycles: 230255280 heartbeat IPC: 1.27494 cumulative IPC: 1.59949 (Simulation time: 1 hr 7 min 44 sec) 
Heartbeat CPU 0 instructions: 620000000 cycles: 238387629 heartbeat IPC: 1.22966 cumulative IPC: 1.56038 (Simulation time: 1 hr 9 min 33 sec) 
Heartbeat CPU 0 instructions: 630000003 cycles: 249635141 heartbeat IPC: 0.889086 cumulative IPC: 1.47473 (Simulation time: 1 hr 11 min 27 sec) 
Heartbeat CPU 0 instructions: 640000003 cycles: 257614579 heartbeat IPC: 1.25322 cumulative IPC: 1.45634 (Simulation time: 1 hr 12 min 52 sec) 
Heartbeat CPU 0 instructions: 650000001 cycles: 265430492 heartbeat IPC: 1.27944 cumulative IPC: 1.44304 (Simulation time: 1 hr 14 min 28 sec) 
Heartbeat CPU 0 instructions: 660000000 cycles: 280165686 heartbeat IPC: 0.678647 cumulative IPC: 1.34813 (Simulation time: 1 hr 17 min 23 sec) 
Heartbeat CPU 0 instructions: 670000003 cycles: 290068394 heartbeat IPC: 1.00983 cumulative IPC: 1.32208 (Simulation time: 1 hr 19 min 11 sec) 
Heartbeat CPU 0 instructions: 680000001 cycles: 298652065 heartbeat IPC: 1.165 cumulative IPC: 1.31225 (Simulation time: 1 hr 21 min 36 sec) 
Heartbeat CPU 0 instructions: 690000001 cycles: 307322993 heartbeat IPC: 1.15328 cumulative IPC: 1.3028 (Simulation time: 1 hr 23 min 26 sec) 
Heartbeat CPU 0 instructions: 700000003 cycles: 316042592 heartbeat IPC: 1.14684 cumulative IPC: 1.294 (Simulation time: 1 hr 24 min 48 sec) 
Heartbeat CPU 0 instructions: 710000003 cycles: 324656270 heartbeat IPC: 1.16094 cumulative IPC: 1.28698 (Simulation time: 1 hr 26 min 9 sec) 
Heartbeat CPU 0 instructions: 720000004 cycles: 333320413 heartbeat IPC: 1.15418 cumulative IPC: 1.28028 (Simulation time: 1 hr 27 min 55 sec) 
Heartbeat CPU 0 instructions: 730000004 cycles: 341968829 heartbeat IPC: 1.15628 cumulative IPC: 1.27434 (Simulation time: 1 hr 30 min 27 sec) 
Heartbeat CPU 0 instructions: 740000000 cycles: 350603802 heartbeat IPC: 1.15808 cumulative IPC: 1.26903 (Simulation time: 1 hr 32 min 57 sec) 
Heartbeat CPU 0 instructions: 750000001 cycles: 359238306 heartbeat IPC: 1.15814 cumulative IPC: 1.26419 (Simulation time: 1 hr 34 min 41 sec) 
Heartbeat CPU 0 instructions: 760000000 cycles: 372339406 heartbeat IPC: 0.763295 cumulative IPC: 1.23307 (Simulation time: 1 hr 37 min 22 sec) 
Heartbeat CPU 0 instructions: 770000003 cycles: 384882298 heartbeat IPC: 0.797265 cumulative IPC: 1.2086 (Simulation time: 1 hr 40 min 38 sec) 
Heartbeat CPU 0 instructions: 780000002 cycles: 395394061 heartbeat IPC: 0.951315 cumulative IPC: 1.19704 (Simulation time: 1 hr 43 min 44 sec) 
Heartbeat CPU 0 instructions: 790000001 cycles: 401581619 heartbeat IPC: 1.61615 cumulative IPC: 1.20784 (Simulation time: 1 hr 46 min 2 sec) 
Heartbeat CPU 0 instructions: 800000003 cycles: 407594455 heartbeat IPC: 1.66311 cumulative IPC: 1.21896 (Simulation time: 1 hr 47 min 41 sec) 
Heartbeat CPU 0 instructions: 810000001 cycles: 413603876 heartbeat IPC: 1.66405 cumulative IPC: 1.22957 (Simulation time: 1 hr 49 min 28 sec) 
Heartbeat CPU 0 instructions: 820000003 cycles: 419664616 heartbeat IPC: 1.64996 cumulative IPC: 1.23944 (Simulation time: 1 hr 51 min 49 sec) 
Heartbeat CPU 0 instructions: 830000000 cycles: 425678396 heartbeat IPC: 1.66285 cumulative IPC: 1.24908 (Simulation time: 1 hr 53 min 48 sec) 
Heartbeat CPU 0 instructions: 840000001 cycles: 431260577 heartbeat IPC: 1.79141 cumulative IPC: 1.2603 (Simulation time: 1 hr 55 min 23 sec) 
Heartbeat CPU 0 instructions: 850000003 cycles: 436608787 heartbeat IPC: 1.86978 cumulative IPC: 1.27215 (Simulation time: 1 hr 57 min 11 sec) 
Heartbeat CPU 0 instructions: 860000001 cycles: 441899298 heartbeat IPC: 1.89018 cumulative IPC: 1.28381 (Simulation time: 1 hr 58 min 52 sec) 
Heartbeat CPU 0 instructions: 870000000 cycles: 447171609 heartbeat IPC: 1.8967 cumulative IPC: 1.29512 (Simulation time: 2 hr 0 min 25 sec) 
Heartbeat CPU 0 instructions: 880000000 cycles: 453661700 heartbeat IPC: 1.54081 cumulative IPC: 1.30057 (Simulation time: 2 hr 2 min 4 sec) 
Heartbeat CPU 0 instructions: 890000001 cycles: 461550285 heartbeat IPC: 1.26765 cumulative IPC: 1.29971 (Simulation time: 2 hr 4 min 43 sec) 
Heartbeat CPU 0 instructions: 900000001 cycles: 469397322 heartbeat IPC: 1.27437 cumulative IPC: 1.29906 (Simulation time: 2 hr 7 min 31 sec) 
Heartbeat CPU 0 instructions: 910000000 cycles: 477227321 heartbeat IPC: 1.27714 cumulative IPC: 1.29852 (Simulation time: 2 hr 10 min 4 sec) 
Heartbeat CPU 0 instructions: 920000001 cycles: 488000192 heartbeat IPC: 0.928258 cumulative IPC: 1.2863 (Simulation time: 2 hr 11 min 46 sec) 
Heartbeat CPU 0 instructions: 930000003 cycles: 496723359 heartbeat IPC: 1.14637 cumulative IPC: 1.28266 (Simulation time: 2 hr 13 min 10 sec) 
Heartbeat CPU 0 instructions: 940000001 cycles: 504569894 heartbeat IPC: 1.27445 cumulative IPC: 1.28247 (Simulation time: 2 hr 14 min 28 sec) 
Heartbeat CPU 0 instructions: 950000000 cycles: 515586496 heartbeat IPC: 0.907721 cumulative IPC: 1.27082 (Simulation time: 2 hr 16 min 2 sec) 
Heartbeat CPU 0 instructions: 960000000 cycles: 528540483 heartbeat IPC: 0.771963 cumulative IPC: 1.25321 (Simulation time: 2 hr 17 min 51 sec) 
Heartbeat CPU 0 instructions: 970000002 cycles: 537407880 heartbeat IPC: 1.12773 cumulative IPC: 1.25025 (Simulation time: 2 hr 19 min 38 sec) 
Heartbeat CPU 0 instructions: 980000001 cycles: 546032272 heartbeat IPC: 1.1595 cumulative IPC: 1.24822 (Simulation time: 2 hr 21 min 12 sec) 
Heartbeat CPU 0 instructions: 990000002 cycles: 554629975 heartbeat IPC: 1.1631 cumulative IPC: 1.24635 (Simulation time: 2 hr 23 min 12 sec) 
Heartbeat CPU 0 instructions: 1000000000 cycles: 563326172 heartbeat IPC: 1.14993 cumulative IPC: 1.24427 (Simulation time: 2 hr 24 min 33 sec) 
Heartbeat CPU 0 instructions: 1010000000 cycles: 572002715 heartbeat IPC: 1.15253 cumulative IPC: 1.24233 (Simulation time: 2 hr 25 min 55 sec) 
Heartbeat CPU 0 instructions: 1020000000 cycles: 580615373 heartbeat IPC: 1.16108 cumulative IPC: 1.24066 (Simulation time: 2 hr 27 min 16 sec) 
Heartbeat CPU 0 instructions: 1030000002 cycles: 589253424 heartbeat IPC: 1.15767 cumulative IPC: 1.23898 (Simulation time: 2 hr 28 min 37 sec) 
Heartbeat CPU 0 instructions: 1040000004 cycles: 597913366 heartbeat IPC: 1.15474 cumulative IPC: 1.23731 (Simulation time: 2 hr 29 min 58 sec) 
Heartbeat CPU 0 instructions: 1050000002 cycles: 609011573 heartbeat IPC: 0.901046 cumulative IPC: 1.22897 (Simulation time: 2 hr 31 min 35 sec) 
Heartbeat CPU 0 instructions: 1060000003 cycles: 621312488 heartbeat IPC: 0.812948 cumulative IPC: 1.21784 (Simulation time: 2 hr 33 min 17 sec) 
Heartbeat CPU 0 instructions: 1070000000 cycles: 634895598 heartbeat IPC: 0.736208 cumulative IPC: 1.20402 (Simulation time: 2 hr 35 min 44 sec) 
Heartbeat CPU 0 instructions: 1080000004 cycles: 641672745 heartbeat IPC: 1.47555 cumulative IPC: 1.20786 (Simulation time: 2 hr 38 min 12 sec) 
Heartbeat CPU 0 instructions: 1090000004 cycles: 647698618 heartbeat IPC: 1.65951 cumulative IPC: 1.21345 (Simulation time: 2 hr 40 min 13 sec) 
Heartbeat CPU 0 instructions: 1100000004 cycles: 653711371 heartbeat IPC: 1.66313 cumulative IPC: 1.21895 (Simulation time: 2 hr 41 min 54 sec) 
Heartbeat CPU 0 instructions: 1110000001 cycles: 659723023 heartbeat IPC: 1.66344 cumulative IPC: 1.22431 (Simulation time: 2 hr 43 min 17 sec) 
Heartbeat CPU 0 instructions: 1120000004 cycles: 665790289 heartbeat IPC: 1.64819 cumulative IPC: 1.22941 (Simulation time: 2 hr 44 min 33 sec) 
Heartbeat CPU 0 instructions: 1130000003 cycles: 671775463 heartbeat IPC: 1.6708 cumulative IPC: 1.23459 (Simulation time: 2 hr 45 min 47 sec) 
Heartbeat CPU 0 instructions: 1140000000 cycles: 677085529 heartbeat IPC: 1.88322 cumulative IPC: 1.24127 (Simulation time: 2 hr 47 min 12 sec) 
Heartbeat CPU 0 instructions: 1150000003 cycles: 682356245 heartbeat IPC: 1.89728 cumulative IPC: 1.2479 (Simulation time: 2 hr 48 min 23 sec) 
Heartbeat CPU 0 instructions: 1160000000 cycles: 687669504 heartbeat IPC: 1.88208 cumulative IPC: 1.25431 (Simulation time: 2 hr 49 min 30 sec) 
Heartbeat CPU 0 instructions: 1170000003 cycles: 692946608 heartbeat IPC: 1.89498 cumulative IPC: 1.26067 (Simulation time: 2 hr 50 min 38 sec) 
Heartbeat CPU 0 instructions: 1180000000 cycles: 700609270 heartbeat IPC: 1.30503 cumulative IPC: 1.2613 (Simulation time: 2 hr 52 min 9 sec) 
Heartbeat CPU 0 instructions: 1190000000 cycles: 708499889 heartbeat IPC: 1.26733 cumulative IPC: 1.26139 (Simulation time: 2 hr 53 min 48 sec) 
Heartbeat CPU 0 instructions: 1200000002 cycles: 716340511 heartbeat IPC: 1.27541 cumulative IPC: 1.26159 (Simulation time: 2 hr 55 min 26 sec) 
Heartbeat CPU 0 instructions: 1210000001 cycles: 724266182 heartbeat IPC: 1.26172 cumulative IPC: 1.26159 (Simulation time: 2 hr 56 min 59 sec) 
Heartbeat CPU 0 instructions: 1220000003 cycles: 735654096 heartbeat IPC: 0.878124 cumulative IPC: 1.25398 (Simulation time: 2 hr 58 min 37 sec) 
Heartbeat CPU 0 instructions: 1230000003 cycles: 743685865 heartbeat IPC: 1.24506 cumulative IPC: 1.25386 (Simulation time: 2 hr 59 min 57 sec) 
Heartbeat CPU 0 instructions: 1240000003 cycles: 751499209 heartbeat IPC: 1.27986 cumulative IPC: 1.2542 (Simulation time: 3 hr 1 min 14 sec) 
Heartbeat CPU 0 instructions: 1250000004 cycles: 765774246 heartbeat IPC: 0.700524 cumulative IPC: 1.24112 (Simulation time: 3 hr 3 min 2 sec) 
Heartbeat CPU 0 instructions: 1260000002 cycles: 776122581 heartbeat IPC: 0.966339 cumulative IPC: 1.2365 (Simulation time: 3 hr 4 min 31 sec) 
Heartbeat CPU 0 instructions: 1270000004 cycles: 788241786 heartbeat IPC: 0.825137 cumulative IPC: 1.22854 (Simulation time: 3 hr 6 min 12 sec) 
Heartbeat CPU 0 instructions: 1280000004 cycles: 797246417 heartbeat IPC: 1.11054 cumulative IPC: 1.22687 (Simulation time: 3 hr 7 min 34 sec) 
Heartbeat CPU 0 instructions: 1290000004 cycles: 805922608 heartbeat IPC: 1.15258 cumulative IPC: 1.22587 (Simulation time: 3 hr 8 min 54 sec) 
Heartbeat CPU 0 instructions: 1300000000 cycles: 814544979 heartbeat IPC: 1.15977 cumulative IPC: 1.225 (Simulation time: 3 hr 10 min 13 sec) 
Heartbeat CPU 0 instructions: 1310000003 cycles: 823217700 heartbeat IPC: 1.15304 cumulative IPC: 1.22406 (Simulation time: 3 hr 11 min 33 sec) 
Heartbeat CPU 0 instructions: 1320000000 cycles: 831878541 heartbeat IPC: 1.15462 cumulative IPC: 1.22316 (Simulation time: 3 hr 12 min 53 sec) 
Heartbeat CPU 0 instructions: 1330000000 cycles: 840533106 heartbeat IPC: 1.15546 cumulative IPC: 1.2223 (Simulation time: 3 hr 14 min 13 sec) 
Heartbeat CPU 0 instructions: 1340000001 cycles: 849105584 heartbeat IPC: 1.16652 cumulative IPC: 1.2216 (Simulation time: 3 hr 15 min 33 sec) 
Heartbeat CPU 0 instructions: 1350000001 cycles: 857792770 heartbeat IPC: 1.15112 cumulative IPC: 1.22072 (Simulation time: 3 hr 16 min 53 sec) 
Heartbeat CPU 0 instructions: 1360000003 cycles: 868024371 heartbeat IPC: 0.977364 cumulative IPC: 1.2172 (Simulation time: 3 hr 18 min 22 sec) 
Heartbeat CPU 0 instructions: 1370000004 cycles: 880444531 heartbeat IPC: 0.805143 cumulative IPC: 1.21008 (Simulation time: 3 hr 20 min 2 sec) 
Heartbeat CPU 0 instructions: 1380000001 cycles: 893929144 heartbeat IPC: 0.741586 cumulative IPC: 1.20145 (Simulation time: 3 hr 21 min 49 sec) 
Heartbeat CPU 0 instructions: 1390000000 cycles: 903556571 heartbeat IPC: 1.0387 cumulative IPC: 1.19934 (Simulation time: 3 hr 23 min 14 sec) 
Heartbeat CPU 0 instructions: 1400000000 cycles: 916593551 heartbeat IPC: 0.767049 cumulative IPC: 1.19188 (Simulation time: 3 hr 25 min 10 sec) 
Heartbeat CPU 0 instructions: 1410000004 cycles: 931390632 heartbeat IPC: 0.675809 cumulative IPC: 1.18196 (Simulation time: 3 hr 27 min 15 sec) 
Heartbeat CPU 0 instructions: 1420000000 cycles: 937973840 heartbeat IPC: 1.51902 cumulative IPC: 1.18482 (Simulation time: 3 hr 28 min 17 sec) 
Heartbeat CPU 0 instructions: 1430000000 cycles: 943423241 heartbeat IPC: 1.83506 cumulative IPC: 1.18935 (Simulation time: 3 hr 29 min 18 sec) 
Heartbeat CPU 0 instructions: 1440000004 cycles: 948747535 heartbeat IPC: 1.87818 cumulative IPC: 1.19401 (Simulation time: 3 hr 30 min 18 sec) 
Heartbeat CPU 0 instructions: 1450000004 cycles: 953957625 heartbeat IPC: 1.91935 cumulative IPC: 1.19878 (Simulation time: 3 hr 31 min 12 sec) 
Heartbeat CPU 0 instructions: 1460000001 cycles: 959165506 heartbeat IPC: 1.92017 cumulative IPC: 1.20349 (Simulation time: 3 hr 32 min 6 sec) 
Heartbeat CPU 0 instructions: 1470000004 cycles: 964738270 heartbeat IPC: 1.79444 cumulative IPC: 1.20759 (Simulation time: 3 hr 33 min 5 sec) 
Heartbeat CPU 0 instructions: 1480000004 cycles: 970700705 heartbeat IPC: 1.67717 cumulative IPC: 1.21105 (Simulation time: 3 hr 34 min 8 sec) 
Heartbeat CPU 0 instructions: 1490000000 cycles: 978047557 heartbeat IPC: 1.36113 cumulative IPC: 1.2124 (Simulation time: 3 hr 35 min 12 sec) 
Heartbeat CPU 0 instructions: 1500000004 cycles: 989763948 heartbeat IPC: 0.853505 cumulative IPC: 1.20732 (Simulation time: 3 hr 36 min 48 sec) 
Heartbeat CPU 0 instructions: 1510000002 cycles: 995743228 heartbeat IPC: 1.67244 cumulative IPC: 1.21065 (Simulation time: 3 hr 37 min 46 sec) 
Heartbeat CPU 0 instructions: 1520000000 cycles: 1001035594 heartbeat IPC: 1.88951 cumulative IPC: 1.21493 (Simulation time: 3 hr 38 min 45 sec) 
Heartbeat CPU 0 instructions: 1530000003 cycles: 1006201998 heartbeat IPC: 1.93558 cumulative IPC: 1.21934 (Simulation time: 3 hr 39 min 43 sec) 
Heartbeat CPU 0 instructions: 1540000000 cycles: 1011666513 heartbeat IPC: 1.82999 cumulative IPC: 1.22327 (Simulation time: 3 hr 40 min 37 sec) 
Heartbeat CPU 0 instructions: 1550000004 cycles: 1017128215 heartbeat IPC: 1.83093 cumulative IPC: 1.22714 (Simulation time: 3 hr 41 min 31 sec) 
Heartbeat CPU 0 instructions: 1560000001 cycles: 1023317557 heartbeat IPC: 1.61568 cumulative IPC: 1.22993 (Simulation time: 3 hr 42 min 32 sec) 
Heartbeat CPU 0 instructions: 1570000003 cycles: 1030638299 heartbeat IPC: 1.36598 cumulative IPC: 1.23108 (Simulation time: 3 hr 43 min 45 sec) 
Heartbeat CPU 0 instructions: 1580000002 cycles: 1038424389 heartbeat IPC: 1.28434 cumulative IPC: 1.23155 (Simulation time: 3 hr 44 min 55 sec) 
Heartbeat CPU 0 instructions: 1590000000 cycles: 1050308201 heartbeat IPC: 0.841481 cumulative IPC: 1.22634 (Simulation time: 3 hr 46 min 32 sec) 
Heartbeat CPU 0 instructions: 1600000001 cycles: 1056598730 heartbeat IPC: 1.58969 cumulative IPC: 1.22889 (Simulation time: 3 hr 47 min 32 sec) 
Heartbeat CPU 0 instructions: 1610000004 cycles: 1062117516 heartbeat IPC: 1.81199 cumulative IPC: 1.23246 (Simulation time: 3 hr 48 min 33 sec) 
Heartbeat CPU 0 instructions: 1620000001 cycles: 1067413250 heartbeat IPC: 1.88831 cumulative IPC: 1.2363 (Simulation time: 3 hr 49 min 33 sec) 
Heartbeat CPU 0 instructions: 1630000000 cycles: 1072683250 heartbeat IPC: 1.89753 cumulative IPC: 1.24012 (Simulation time: 3 hr 50 min 29 sec) 
Heartbeat CPU 0 instructions: 1640000003 cycles: 1077856973 heartbeat IPC: 1.93284 cumulative IPC: 1.24403 (Simulation time: 3 hr 51 min 23 sec) 
Heartbeat CPU 0 instructions: 1650000003 cycles: 1083336131 heartbeat IPC: 1.8251 cumulative IPC: 1.24749 (Simulation time: 3 hr 52 min 19 sec) 
Heartbeat CPU 0 instructions: 1660000004 cycles: 1089301701 heartbeat IPC: 1.67629 cumulative IPC: 1.25024 (Simulation time: 3 hr 53 min 19 sec) 
Heartbeat CPU 0 instructions: 1670000003 cycles: 1095885688 heartbeat IPC: 1.51884 cumulative IPC: 1.25214 (Simulation time: 3 hr 54 min 19 sec) 
Heartbeat CPU 0 instructions: 1680000000 cycles: 1108038067 heartbeat IPC: 0.822884 cumulative IPC: 1.24663 (Simulation time: 3 hr 55 min 57 sec) 
Heartbeat CPU 0 instructions: 1690000002 cycles: 1114331033 heartbeat IPC: 1.58908 cumulative IPC: 1.24889 (Simulation time: 3 hr 56 min 58 sec) 
Heartbeat CPU 0 instructions: 1700000001 cycles: 1119660724 heartbeat IPC: 1.87628 cumulative IPC: 1.25238 (Simulation time: 3 hr 57 min 57 sec) 
Heartbeat CPU 0 instructions: 1710000004 cycles: 1124825125 heartbeat IPC: 1.93633 cumulative IPC: 1.25604 (Simulation time: 3 hr 58 min 55 sec) 
Heartbeat CPU 0 instructions: 1720000000 cycles: 1130277466 heartbeat IPC: 1.83407 cumulative IPC: 1.2593 (Simulation time: 3 hr 59 min 50 sec) 
Heartbeat CPU 0 instructions: 1730000001 cycles: 1135719749 heartbeat IPC: 1.83746 cumulative IPC: 1.26253 (Simulation time: 4 hr 0 min 48 sec) 
Heartbeat CPU 0 instructions: 1740000000 cycles: 1141310882 heartbeat IPC: 1.78855 cumulative IPC: 1.26553 (Simulation time: 4 hr 1 min 45 sec) 
Heartbeat CPU 0 instructions: 1750000001 cycles: 1147199415 heartbeat IPC: 1.69822 cumulative IPC: 1.26811 (Simulation time: 4 hr 2 min 45 sec) 
Heartbeat CPU 0 instructions: 1760000004 cycles: 1153391410 heartbeat IPC: 1.61499 cumulative IPC: 1.27028 (Simulation time: 4 hr 3 min 43 sec) 
Heartbeat CPU 0 instructions: 1770000000 cycles: 1165693247 heartbeat IPC: 0.812886 cumulative IPC: 1.26468 (Simulation time: 4 hr 5 min 23 sec) 
Heartbeat CPU 0 instructions: 1780000004 cycles: 1172858011 heartbeat IPC: 1.39572 cumulative IPC: 1.2656 (Simulation time: 4 hr 6 min 31 sec) 
Heartbeat CPU 0 instructions: 1790000000 cycles: 1179565116 heartbeat IPC: 1.49096 cumulative IPC: 1.26709 (Simulation time: 4 hr 7 min 41 sec) 
Heartbeat CPU 0 instructions: 1800000003 cycles: 1185757410 heartbeat IPC: 1.61491 cumulative IPC: 1.26919 (Simulation time: 4 hr 8 min 49 sec) 
Heartbeat CPU 0 instructions: 1810000002 cycles: 1191120453 heartbeat IPC: 1.86461 cumulative IPC: 1.27229 (Simulation time: 4 hr 9 min 45 sec) 
Heartbeat CPU 0 instructions: 1820000003 cycles: 1196340532 heartbeat IPC: 1.91568 cumulative IPC: 1.27554 (Simulation time: 4 hr 10 min 40 sec) 
Heartbeat CPU 0 instructions: 1830000001 cycles: 1201728748 heartbeat IPC: 1.8559 cumulative IPC: 1.27854 (Simulation time: 4 hr 11 min 37 sec) 
Heartbeat CPU 0 instructions: 1840000000 cycles: 1207715250 heartbeat IPC: 1.67042 cumulative IPC: 1.28079 (Simulation time: 4 hr 12 min 37 sec) 
Heartbeat CPU 0 instructions: 1850000001 cycles: 1213648400 heartbeat IPC: 1.68545 cumulative IPC: 1.28307 (Simulation time: 4 hr 13 min 33 sec) 
Heartbeat CPU 0 instructions: 1860000001 cycles: 1226099053 heartbeat IPC: 0.803171 cumulative IPC: 1.27746 (Simulation time: 4 hr 15 min 12 sec) 
Heartbeat CPU 0 instructions: 1870000001 cycles: 1232857325 heartbeat IPC: 1.47967 cumulative IPC: 1.27873 (Simulation time: 4 hr 16 min 16 sec) 
Heartbeat CPU 0 instructions: 1880000002 cycles: 1238172966 heartbeat IPC: 1.88124 cumulative IPC: 1.28171 (Simulation time: 4 hr 17 min 16 sec) 
Heartbeat CPU 0 instructions: 1890000000 cycles: 1243338344 heartbeat IPC: 1.93597 cumulative IPC: 1.28483 (Simulation time: 4 hr 18 min 14 sec) 
Heartbeat CPU 0 instructions: 1900000000 cycles: 1249512275 heartbeat IPC: 1.61971 cumulative IPC: 1.28673 (Simulation time: 4 hr 19 min 17 sec) 
Heartbeat CPU 0 instructions: 1910000000 cycles: 1255907147 heartbeat IPC: 1.56375 cumulative IPC: 1.28835 (Simulation time: 4 hr 20 min 22 sec) 
Heartbeat CPU 0 instructions: 1920000002 cycles: 1262204504 heartbeat IPC: 1.58797 cumulative IPC: 1.29006 (Simulation time: 4 hr 21 min 26 sec) 
Heartbeat CPU 0 instructions: 1930000000 cycles: 1268102563 heartbeat IPC: 1.69547 cumulative IPC: 1.29222 (Simulation time: 4 hr 22 min 26 sec) 
Heartbeat CPU 0 instructions: 1940000001 cycles: 1273782024 heartbeat IPC: 1.76073 cumulative IPC: 1.29462 (Simulation time: 4 hr 23 min 21 sec) 
Heartbeat CPU 0 instructions: 1950000004 cycles: 1286208445 heartbeat IPC: 0.804737 cumulative IPC: 1.2892 (Simulation time: 4 hr 24 min 59 sec) 
Heartbeat CPU 0 instructions: 1960000002 cycles: 1296035481 heartbeat IPC: 1.0176 cumulative IPC: 1.28685 (Simulation time: 4 hr 26 min 17 sec) 
Heartbeat CPU 0 instructions: 1970000001 cycles: 1306323396 heartbeat IPC: 0.972014 cumulative IPC: 1.28402 (Simulation time: 4 hr 27 min 30 sec) 
Heartbeat CPU 0 instructions: 1980000004 cycles: 1316596736 heartbeat IPC: 0.973394 cumulative IPC: 1.28126 (Simulation time: 4 hr 28 min 44 sec) 
Heartbeat CPU 0 instructions: 1990000000 cycles: 1326888126 heartbeat IPC: 0.971686 cumulative IPC: 1.27853 (Simulation time: 4 hr 29 min 58 sec) 
*** Reached end of trace: traces/481.wrf-816B.champsimtrace.xz
Heartbeat CPU 0 instructions: 2000000000 cycles: 1337172566 heartbeat IPC: 0.972343 cumulative IPC: 1.27585 (Simulation time: 4 hr 31 min 11 sec) 
Finished CPU 0 instructions: 1500000000 cycles: 1175689372 cumulative IPC: 1.27585 (Simulation time: 4 hr 31 min 11 sec) 

ChampSim completed all CPUs

Region of Interest Statistics

CPU 0 cumulative IPC: 1.27585 instructions: 1500000000 cycles: 1175689372
cpu0_DTLB TOTAL     ACCESS:  355637481  HIT:  355156979  MISS:     480502
cpu0_DTLB LOAD      ACCESS:  309703628  HIT:  309277551  MISS:     426077
cpu0_DTLB RFO       ACCESS:   45933853  HIT:   45879428  MISS:      54425
cpu0_DTLB PREFETCH  ACCESS:          0  HIT:          0  MISS:          0
cpu0_DTLB WRITEBACK ACCESS:          0  HIT:          0  MISS:          0
cpu0_DTLB TRANSLATION ACCESS:          0  HIT:          0  MISS:          0
cpu0_DTLB PREFETCH  REQUESTED:          0  ISSUED:          0  USEFUL:          0  USELESS:          0
cpu0_DTLB AVERAGE MISS LATENCY: 31.4719 cycles
cpu0_ITLB TOTAL     ACCESS:   26743333  HIT:   26743297  MISS:         36
cpu0_ITLB LOAD      ACCESS:   26743333  HIT:   26743297  MISS:         36
cpu0_ITLB RFO       ACCESS:          0  HIT:          0  MISS:          0
cpu0_ITLB PREFETCH  ACCESS:          0  HIT:          0  MISS:          0
cpu0_ITLB WRITEBACK ACCESS:          0  HIT:          0  MISS:          0
cpu0_ITLB TRANSLATION ACCESS:          0  HIT:          0  MISS:          0
cpu0_ITLB PREFETCH  REQUESTED:          0  ISSUED:          0  USEFUL:          0  USELESS:          0
cpu0_ITLB AVERAGE MISS LATENCY: 206.25 cycles
cpu0_L1I TOTAL     ACCESS:    9674172  HIT:    9670892  MISS:       3280
cpu0_L1I LOAD      ACCESS:    9674172  HIT:    9670892  MISS:       3280
cpu0_L1I RFO       ACCESS:          0  HIT:          0  MISS:          0
cpu0_L1I PREFETCH  ACCESS:          0  HIT:          0  MISS:          0
cpu0_L1I WRITEBACK ACCESS:          0  HIT:          0  MISS:          0
cpu0_L1I TRANSLATION ACCESS:          0  HIT:          0  MISS:          0
cpu0_L1I PREFETCH  REQUESTED:          0  ISSUED:          0  USEFUL:          0  USELESS:          0
cpu0_L1I AVERAGE MISS LATENCY: 404.886 cycles
cpu0_STLB TOTAL     ACCESS:     480538  HIT:     339411  MISS:     141127
cpu0_STLB LOAD      ACCESS:     426113  HIT:     299534  MISS:     126579
cpu0_STLB RFO       ACCESS:      54425  HIT:      39877  MISS:      14548
cpu0_STLB PREFETCH  ACCESS:          0  HIT:          0  MISS:          0
cpu0_STLB WRITEBACK ACCESS:          0  HIT:          0  MISS:          0
cpu0_STLB TRANSLATION ACCESS:          0  HIT:          0  MISS:          0
cpu0_STLB PREFETCH  REQUESTED:          0  ISSUED:          0  USEFUL:          0  USELESS:          0
cpu0_STLB AVERAGE MISS LATENCY: 76.4158 cycles
cpu0_L1D TOTAL     ACCESS:  323168474  HIT:  308959939  MISS:   14208535
cpu0_L1D LOAD      ACCESS:  242370742  HIT:  230137580  MISS:   12233162
cpu0_L1D RFO       ACCESS:   80664384  HIT:   78706545  MISS:    1957839
cpu0_L1D PREFETCH  ACCESS:          0  HIT:          0  MISS:          0
cpu0_L1D WRITEBACK ACCESS:          0  HIT:          0  MISS:          0
cpu0_L1D TRANSLATION ACCESS:     133348  HIT:     115814  MISS:      17534
cpu0_L1D PREFETCH  REQUESTED:          0  ISSUED:          0  USEFUL:          0  USELESS:          0
cpu0_L1D AVERAGE MISS LATENCY: 182.946 cycles
cpu0_L2C TOTAL     ACCESS:   18726567  HIT:    9181518  MISS:    9545049
cpu0_L2C LOAD      ACCESS:   12236284  HIT:    3778737  MISS:    8457547
cpu0_L2C RFO       ACCESS:    1957802  HIT:     877603  MISS:    1080199
cpu0_L2C PREFETCH  ACCESS:          0  HIT:          0  MISS:          0
cpu0_L2C WRITEBACK ACCESS:    4514947  HIT:    4509067  MISS:       5880
cpu0_L2C TRANSLATION ACCESS:      17534  HIT:      16111  MISS:       1423
cpu0_L2C PREFETCH  REQUESTED:          0  ISSUED:          0  USEFUL:          0  USELESS:          0
cpu0_L2C AVERAGE MISS LATENCY: 256.056 cycles
LLC TOTAL     ACCESS:   12715395  HIT:    3296386  MISS:    9419009
LLC LOAD      ACCESS:    8457541  HIT:      88752  MISS:    8368789
LLC RFO       ACCESS:    1080190  HIT:      46767  MISS:    1033423
LLC PREFETCH  ACCESS:          0  HIT:          0  MISS:          0
LLC WRITEBACK ACCESS:    3176241  HIT:    3160118  MISS:      16123
LLC TRANSLATION ACCESS:       1423  HIT:        749  MISS:        674
LLC PREFETCH  REQUESTED:          0  ISSUED:          0  USEFUL:          0  USELESS:          0
LLC AVERAGE MISS LATENCY: 238.214 cycles
~~~~~~~~~~Reuse Distance Profiler output~~~~~~~~~~
0	40452720	10568240
1	33635952	13471600
2	32057408	21050464
3	37229600	27608624
4	33052016	26148576
5	30178624	24340288
6	22031680	18708704
7	21835776	19267936
8	21812736	19043712
9	18158592	16444656
10	13019200	11817216
11	11204496	10155728
12	10438096	9780320
13	8693984	8077680
14	11141392	10138624
15	8483680	7703696
16	4516016	4120192
17	4224592	3558496
18	3473600	3042848
19	4050736	3408608
20	4739856	3286080
21	4780752	4337520
22	4991456	4316528
23	4936560	4235648
24	4915520	4283824
25	5541104	5094848
26	2786016	2452512
27	1784272	1580848
28	1406704	1170528
29	1505376	1050448
30	2230976	1266048
31	2092336	1869168
32	2677424	2536848
33	4978512	4752800
34	8552432	8277328
35	14797184	14656576
36	3683776	3588816
37	2642368	2578992
38	1291984	1193232
39	1147504	1009792
40	1140464	1022032
41	599248	531216
42	314816	267536
43	328656	292992
44	313648	289184
45	263536	244352
46	252016	222400
47	237984	197680
48	247104	204176
49	212608	176112
50	159632	132416
51	274304	232288
52	242336	188976
53	162592	135456
54	167008	141264
55	199440	187936
56	156832	138336
57	124064	99440
58	121792	97184
59	122224	104560
60	149888	122688
61	112896	83664
62	95520	83488
63	98784	78816
64	161456	128400
66	172144	138640
68	165248	145552
70	168944	150176
72	120928	103504
74	154352	137088
76	839760	759776
78	356304	321968
80	1264832	1153152
82	289488	255616
84	109904	96336
86	100672	93520
88	107264	94224
90	70640	57200
92	70336	61152
94	143552	139536
96	45952	39696
98	58640	48944
100	62464	56880
102	94352	88608
104	42192	35760
106	43392	34192
108	41792	37248
110	42592	40224
112	42064	38064
114	52608	49280
116	41776	36960
118	58688	53472
120	51792	48032
122	37376	34240
124	41872	36928
126	46864	40736
128	67920	60144
132	59264	57552
136	63696	60960
140	77632	75648
144	87616	83760
148	89248	87376
152	86688	83584
156	103568	101728
160	111952	110544
164	79760	79344
168	66816	65840
172	56160	55872
176	70528	70192
180	90032	88464
184	75344	69248
188	40832	36688
192	50560	47360
196	49568	44496
200	35168	32976
204	33312	33072
208	34448	34080
212	35392	35072
216	46464	46144
220	53936	53472
224	75856	75488
228	73808	73440
232	76256	74912
236	82976	82576
240	73024	72672
244	82496	82144
248	78608	78224
252	80800	80480
256	183632	182544
264	182400	181760
272	172784	172192
280	191600	191104
288	206560	206064
296	220608	219872
304	212224	211568
312	230656	230288
320	222688	221968
328	214608	214176
336	160064	159296
344	120160	119440
352	111200	110176
360	86432	85936
368	83744	83520
376	45536	45264
384	33728	33568
392	30224	30192
400	30384	30240
408	36432	36368
416	25424	25344
424	22800	22720
432	38640	38624
440	76528	76496
448	121392	121376
456	122160	122048
464	139200	139088
472	106576	106496
480	90832	90608
488	90256	90176
496	106800	106656
504	165744	165648
512	303952	303712
528	329696	329664
544	200784	200672
560	223920	223904
576	282000	281840
592	253680	253456
608	150096	149968
624	138720	138528
640	178736	178624
656	143296	143216
672	93936	93808
688	205392	205296
704	40656	40160
720	16864	16560
736	16064	15856
752	67376	67280
768	78544	78528
784	31360	30784
800	127968	127840
816	145344	145168
832	111408	111328
848	112512	112112
864	49696	49568
880	45680	45664
896	66800	66720
912	136016	135888
928	101744	101472
944	21104	20704
960	16304	16224
976	46016	45792
992	32800	32624
1008	57696	57392
1024	104304	103984
1056	101744	101552
1088	43808	43760
1120	10800	10496
1152	119808	119760
1184	275552	275536
1216	32016	32000
1248	66288	66016
1280	91040	91040
1312	222048	222048
1344	58256	58256
1376	176144	176016
1408	56448	56112
1440	69040	68864
1472	58144	58080
1504	72272	72192
1536	91904	91904
1568	69184	69168
1600	52448	52432
1632	40864	40864
1664	41088	41088
1696	48288	48288
1728	31904	31904
1760	6368	6368
1792	69200	69184
1824	120176	120160
1856	72816	72544
1888	8336	8288
1920	5184	5184
1952	22656	22624
1984	21424	21360
2016	23600	23488
2048	50688	50448
2112	2944	2800
2176	1712	1616
2240	2720	2656
2304	3728	3568
2368	2512	2432
2432	3952	3952
2496	9520	9488
2560	54112	53920
2624	77424	77232
2688	371200	371040
2752	88944	88928
2816	35488	35280
2880	50288	50288
2944	83360	83360
3008	243744	243648
3072	34272	33952
3136	15968	15632
3200	12144	11984
3264	12080	11552
3328	34880	34752
3392	30736	30080
3456	25392	25392
3520	47376	47328
3584	21152	20752
3648	23136	23120
3712	22736	22720
3776	11680	11680
3840	6016	6016
3904	5792	5728
3968	17408	17168
4032	487072	486880
4096	559440	559424
4224	139520	139248
4352	76432	74368
4480	134384	129104
4608	182928	180464
4736	19584	19008
4864	16944	15904
4992	4016	3392
5120	6176	5648
5248	9648	8848
5376	4928	3952
5504	7968	5248
5632	5424	4320
5760	8048	7568
5888	5680	4704
6016	4752	4576
6144	8560	8560
6272	5008	4832
6400	6240	6144
6528	5392	5120
6656	9776	9712
6784	7360	7184
6912	8896	7840
7040	11664	10592
7168	11856	10592
7296	20448	19840
7424	11744	9232
7552	13264	12272
7680	10704	9936
7808	12352	11088
7936	17920	13136
8064	19136	14944
8192	42656	35040
8448	73568	66160
8704	63536	56976
8960	48032	41360
9216	36912	28576
9472	88880	80144
9728	51056	43744
9984	43344	36752
10240	45520	38848
10496	36896	30048
10752	44208	37936
11008	38768	32032
11264	42304	35888
11520	43584	37008
11776	44448	36816
12032	44576	36544
12288	47984	39936
12544	43808	36128
12800	44080	36976
13056	41984	33200
13312	52880	45328
13568	41248	32880
13824	42416	33840
14080	39968	31344
14336	37936	29680
14592	39520	33264
14848	34720	29648
15104	37696	31040
15360	38400	31872
15616	43504	32720
15872	54800	35520
16128	61488	36496
16384	132592	81680
16896	145040	90672
17408	125168	85824
17920	73344	52352
18432	58640	39152
18944	50768	34592
19456	45152	29520
19968	49120	33376
20480	46512	30096
20992	49440	34144
21504	45904	30592
22016	48160	32080
22528	56960	37024
23040	52000	31424
23552	50672	30608
24064	46064	28768
24576	47584	31360
25088	43520	28560
25600	52304	37072
26112	46208	33856
26624	40416	28272
27136	36784	25744
27648	35152	26720
28160	30272	23088
28672	28224	21152
29184	26784	21536
29696	26880	21584
30208	23088	18112
30720	23424	18160
31232	21424	16192
31744	21968	16448
32256	22768	17248
32768	48192	37456
33792	47200	35808
34816	47440	36608
35840	34656	26080
36864	32224	24480
37888	60688	52560
38912	36336	27472
39936	90000	80496
40960	299584	289968
41984	475120	465344
43008	387328	377248
44032	124608	115520
45056	26832	17504
46080	31296	21744
47104	30400	20576
48128	33648	26080
49152	29984	23008
50176	78960	72528
51200	26608	20144
52224	27168	20320
53248	21824	14864
54272	21664	13728
55296	24080	15632
56320	20672	13648
57344	19328	13328
58368	19440	13600
59392	49936	44608
60416	47520	41792
61440	18560	13168
62464	19664	14080
63488	18512	12944
64512	29552	13680
65536	76208	29456
67584	64640	26160
69632	41680	31760
71680	85696	76432
73728	56896	48512
75776	103360	93792
77824	382112	373776
79872	36528	27840
81920	28416	19376
83968	27904	18864
86016	25904	19296
88064	25632	18944
90112	25648	18880
92160	26800	20656
94208	25888	19664
96256	199184	188864
98304	25440	19152
100352	29488	20992
102400	32512	21488
104448	29840	17808
106496	28880	17584
108544	28592	16656
110592	27024	17712
112640	29360	23424
114688	27856	21696
116736	27344	22208
118784	26784	22080
120832	77648	71488
122880	19184	14128
124928	18912	10832
126976	38544	34096
129024	131296	126384
131072	32752	12864
135168	76896	14688
139264	94704	87632
143360	19808	15200
147456	11136	6592
151552	12336	7728
155648	11280	4832
159744	7200	2768
163840	5760	1280
167936	9408	3456
172032	26016	5296
176128	69712	15264
180224	71344	21760
184320	18480	8480
188416	8192	3392
192512	25792	20864
196608	4320	240
200704	640	640
204800	2480	2464
208896	2384	2384
212992	2576	2576
217088	2320	2320
221184	4048	3264
225280	7408	2832
229376	8704	3616
233472	7744	2816
237568	6576	2512
241664	7744	2416
245760	3392	2384
249856	2992	2992
253952	2976	2944
258048	10016	10016
262144	5632	5632
270336	4976	4976
278528	5824	5824
286720	4528	4528
294912	4240	4240
303104	5440	5440
311296	5680	5680
319488	4448	4448
327680	4672	4672
335872	4640	4640
344064	4368	4352
352256	5536	5520
360448	5088	5072
368640	4368	4368
376832	4352	4352
385024	5088	5088
393216	4032	4032
401408	5136	5120
409600	4896	4864
417792	4064	4064
425984	5008	5008
434176	4912	4912
442368	4480	4464
450560	5568	5568
458752	4624	4624
466944	4000	4000
475136	5408	5408
483328	4592	4592
491520	3968	3968
499712	4784	4752
507904	4944	4944
516096	4336	4336
524288	9360	9360
540672	24320	24304
557056	38352	38336
573440	44416	44400
589824	43792	43776
606208	25856	25840
622592	2496	2480
638976	1888	1888
655360	1728	1728
671744	2784	2784
688128	1408	1408
704512	2144	2112
720896	2512	2512
737280	2752	2736
753664	2320	2320
770048	2816	2816
786432	1856	1824
802816	2304	2304
819200	2752	2752
835584	1920	1904
851968	2752	2752
868352	2544	2528
884736	2816	2816
901120	2368	2336
917504	2656	2640
933888	2688	2688
950272	1840	1808
966656	3872	3872
983040	3712	3696
999424	4144	4128
1015808	5920	5920
1032192	4432	4416
1048576	10592	10528
1081344	9440	9392
1114112	10112	10048
1146880	11792	11760
1179648	28608	10816
1212416	41328	10576
1245184	39264	9728
1277952	35552	9056
1310720	32928	7936
1343488	21616	8352
1376256	8480	7504
1409024	9280	6272
1441792	10688	8304
1474560	9776	7648
1507328	10304	7504
1540096	10480	8608
1572864	10112	7680
1605632	9744	8048
1638400	10560	7952
1671168	9568	7360
1703936	12208	9968
1736704	14288	11584
1769472	13040	10912
1802240	13408	10768
1835008	12336	10640
1867776	12848	10240
1900544	13440	11728
1933312	16208	13776
1966080	15648	13680
1998848	16176	13552
2031616	16464	14432
2064384	17072	14592
2097152	33568	29808
2162688	33040	28848
2228224	33104	28784
2293760	28176	23776
2359296	54688	49968
2424832	22512	17904
2490368	23792	19376
2555904	21328	16336
2621440	22384	18224
2686976	24144	19312
2752512	21984	17280
2818048	22160	17984
2883584	22304	18368
2949120	28576	23968
3014656	29168	24736
3080192	27712	22992
3145728	29344	24912
3211264	38032	33376
3276800	39632	34960
3342336	40656	36000
3407872	38416	34432
3473408	37072	32800
3538944	39280	34624
3604480	38672	34640
3670016	41248	36672
3735552	39424	34944
3801088	40384	35648
3866624	39744	35600
3932160	38240	33920
3997696	38320	36688
4063232	39104	39088
4128768	52128	51840
4194304	87168	86960
4325376	79072	78048
4456448	74144	73600
4587520	71936	71072
4718592	70160	70096
4849664	72304	72192
4980736	72896	72848
5111808	55520	55408
5242880	42736	42608
5373952	34976	34928
5505024	31904	31776
5636096	30864	30736
5767168	28528	28480
5898240	28256	28160
6029312	32352	32256
6160384	31504	30784
6291456	23936	23616
6422528	25008	24720
6553600	31056	30464
6684672	24752	24448
6815744	18352	18096
6946816	16384	16160
7077888	16320	16112
7208960	17792	17456
7340032	16496	16272
7471104	18112	17856
7602176	18384	18128
7733248	22128	21568
7864320	21664	21408
7995392	19920	19616
8126464	21024	20832
8257536	20720	20528
8388608	41344	40896
8650752	41376	40576
8912896	53216	51104
9175040	50880	50416
9437184	61168	60560
9699328	78672	76928
9961472	70784	69936
10223616	73168	72240
10485760	68192	67200
10747904	65280	63456
11010048	61392	60320
11272192	88512	87584
11534336	63648	62944
11796480	60160	59440
12058624	61376	60384
12320768	65936	64192
12582912	86656	61648
12845056	108304	45088
13107200	92208	46352
13369344	50496	47424
13631488	50256	49808
13893632	341984	338912
14155776	211152	207120
14417920	49552	49072
14680064	45376	44992
14942208	52992	52544
15204352	51856	50624
15466496	55088	54464
15728640	52096	50704
15990784	49712	48320
16252928	49936	48672
16515072	55280	52560
16777216	104896	98800
17301504	104256	98416
17825792	92800	86800
18350080	81776	76912
18874368	80000	74384
19398656	65872	64432
19922944	57488	57472
20447232	49424	49424
20971520	50368	50368
21495808	53280	53280
22020096	50352	50336
22544384	51712	51712
23068672	54832	54832
23592960	41024	40992
24117248	33088	33088
24641536	28688	28688
25165824	27184	27184
25690112	28576	28576
26214400	30224	30224
26738688	26912	26912
27262976	26544	26512
27787264	32160	32112
28311552	21136	21120
28835840	19584	19568
29360128	54320	54288
29884416	18816	18784
30408704	16624	16624
30932992	23072	23008
31457280	75680	75616
31981568	22656	22464
32505856	20368	20240
33030144	37056	36896
33554432	37328	37136
34603008	29584	29360
35651584	30688	30464
36700160	31984	31632
37748736	31136	30704
38797312	32064	31600
39845888	24928	24624
40894464	27632	27568
41943040	57024	56752
42991616	48944	48928
44040192	46944	42080
45088768	77872	70368
46137344	73296	54704
47185920	52688	27616
48234496	58736	29760
49283072	71072	33552
50331648	54928	18112
51380224	59632	20864
52428800	58928	23600
53477376	44848	22576
54525952	44912	23328
55574528	33168	22752
56623104	32240	25088
57671680	41840	34848
58720256	40912	33696
59768832	39520	32208
60817408	35808	28560
61865984	36832	29376
62914560	46096	39264
63963136	51008	43136
65011712	49488	37024
66060288	27200	17744
67108864	66144	47872
69206016	66160	54176
71303168	42688	30240
73400320	248256	236016
75497472	745696	739216
77594624	358528	354640
79691776	82288	81760
81788928	96480	96224
83886080	119136	119024
85983232	130320	130064
88080384	94224	94176
90177536	18992	18944
92274688	71168	69408
94371840	84512	81392
96468992	39360	35648
98566144	36832	33120
100663296	25568	22928
102760448	25696	24336
104857600	39200	38704
106954752	6800	6736
109051904	9184	9152
111149056	35472	35392
113246208	4736	4736
115343360	3968	3968
117440512	5184	5184
119537664	9264	9264
121634816	6768	6768
123731968	4496	4496
125829120	4016	4016
127926272	5408	5408
130023424	4096	4096
132120576	4176	4176
134217728	96	96
138412032	0	0
142606336	0	0
146800640	0	0
150994944	4736	4736
155189248	3232	3232
159383552	0	0
163577856	0	0
167772160	0	0
171966464	0	0
176160768	0	0
180355072	0	0
184549376	0	0
188743680	0	0
192937984	0	0
197132288	0	0
201326592	0	0
205520896	0	0
209715200	0	0
213909504	0	0
218103808	0	0
222298112	0	0
226492416	0	0
230686720	0	0
234881024	0	0
239075328	0	0
243269632	0	0
247463936	0	0
251658240	0	0
255852544	0	0
260046848	0	0
264241152	0	0
268435456	0	0
276824064	0	0
285212672	0	0
293601280	0	0
301989888	0	0
310378496	0	0
318767104	1408	1408
327155712	1056	1056
335544320	0	0
343932928	0	0
352321536	30848	29824
360710144	752	0
369098752	912	912
377487360	1744	1744
385875968	128	128
394264576	0	0
402653184	7872	0
411041792	21376	0
419430400	0	0
427819008	0	0
436207616	0	0
444596224	0	0
452984832	0	0
461373440	0	0
469762048	16	16
478150656	0	0
486539264	0	0
494927872	0	0
503316480	0	0
511705088	0	0
520093696	0	0
528482304	0	0
536870912	0	0
553648128	0	0
570425344	0	0
587202560	0	0
603979776	0	0
620756992	0	0
637534208	0	0
654311424	0	0
671088640	0	0
687865856	0	0
704643072	0	0
721420288	0	0
738197504	0	0
754974720	0	0
771751936	0	0
788529152	0	0
805306368	0	0
822083584	0	0
838860800	0	0
855638016	0	0
872415232	0	0
889192448	0	0
905969664	0	0
922746880	0	0
939524096	0	0
956301312	0	0
973078528	0	0
989855744	0	0
1006632960	0	0
1023410176	0	0
1040187392	0	0
1056964608	0	0
1073741824	0	0
1107296256	0	0
1140850688	0	0
1174405120	0	0
1207959552	0	0
1241513984	0	0
1275068416	0	0
1308622848	0	0
1342177280	0	0
1375731712	0	0
1409286144	0	0
1442840576	0	0
1476395008	0	0
1509949440	0	0
1543503872	0	0
1577058304	0	0
1610612736	0	0
1644167168	0	0
1677721600	0	0
1711276032	0	0
1744830464	0	0
1778384896	0	0
1811939328	0	0
1845493760	0	0
1879048192	0	0
1912602624	0	0
1946157056	0	0
1979711488	0	0
2013265920	0	0
2046820352	0	0
2080374784	0	0
2113929216	0	0
2147483648	0	0
2214592512	0	0
2281701376	0	0
2348810240	0	0
2415919104	0	0
2483027968	0	0
2550136832	0	0
2617245696	0	0
2684354560	0	0
2751463424	0	0
2818572288	0	0
2885681152	0	0
2952790016	0	0
3019898880	0	0
3087007744	0	0
3154116608	0	0
3221225472	0	0
3288334336	0	0
3355443200	0	0
3422552064	0	0
3489660928	0	0
3556769792	0	0
3623878656	0	0
3690987520	0	0
3758096384	0	0
3825205248	0	0
3892314112	0	0
3959422976	0	0
4026531840	0	0
4093640704	0	0
4160749568	0	0
4227858432	0	0
~~~~~~~~~~Reuse Distance Profiler output end~~~~~~~~~~

DRAM Statistics
 CHANNEL 0
 RQ ROW_BUFFER_HIT:     661581  ROW_BUFFER_MISS:    8740705
 DBUS AVG_CONGESTED_CYCLE:    3.96008
 WQ ROW_BUFFER_HIT:     375068  ROW_BUFFER_MISS:    2722923  FULL:          0


CPU 0 Branch Prediction Accuracy: 98.5471% MPKI: 0.730759 Average ROB Occupancy at Mispredict: 302.068
Branch type MPKI
BRANCH_DIRECT_JUMP: 4.4e-05
BRANCH_INDIRECT: 0
BRANCH_CONDITIONAL: 0.730682
BRANCH_DIRECT_CALL: 1.73333e-05
BRANCH_INDIRECT_CALL: 0
BRANCH_RETURN: 1.53333e-05

