
*** ChampSim Multicore Out-of-Order Simulator ***

Warmup Instructions: 500000000
Simulation Instructions: 1500000000
Number of CPUs: 1
Off-chip DRAM Size: 4 GiB Channels: 1 Width: 64-bit Data Rate: 3200 MT/s

VirtualMemory physical capacity: 8588881920 num_ppages: 2096895
VirtualMemory page size: 4096 log2_page_size: 12

CPU 0 runs traces/481.wrf-1170B.champsimtrace.xz
CPU 0 Bimodal branch predictor
Basic BTB sets: 1024 ways: 8 indirect buffer size: 4096 RAS size: 64
Initializing LRU.
Initializing LRU.
Initializing LRU.
Initializing LRU.
Initializing rdLRU.
Initializing LRU.
Initializing LRU.
Heartbeat CPU 0 instructions: 10000001 cycles: 3182073 heartbeat IPC: 3.14261 cumulative IPC: 3.14261 (Simulation time: 0 hr 1 min 7 sec) 
Heartbeat CPU 0 instructions: 20000003 cycles: 6363700 heartbeat IPC: 3.14305 cumulative IPC: 3.14283 (Simulation time: 0 hr 2 min 6 sec) 
Heartbeat CPU 0 instructions: 30000001 cycles: 9545288 heartbeat IPC: 3.14308 cumulative IPC: 3.14291 (Simulation time: 0 hr 3 min 6 sec) 
Heartbeat CPU 0 instructions: 40000003 cycles: 12727042 heartbeat IPC: 3.14292 cumulative IPC: 3.14291 (Simulation time: 0 hr 4 min 33 sec) 
Heartbeat CPU 0 instructions: 50000002 cycles: 15908654 heartbeat IPC: 3.14306 cumulative IPC: 3.14294 (Simulation time: 0 hr 5 min 46 sec) 
Heartbeat CPU 0 instructions: 60000003 cycles: 19090271 heartbeat IPC: 3.14306 cumulative IPC: 3.14296 (Simulation time: 0 hr 6 min 36 sec) 
Heartbeat CPU 0 instructions: 70000004 cycles: 22271185 heartbeat IPC: 3.14375 cumulative IPC: 3.14307 (Simulation time: 0 hr 7 min 26 sec) 
Heartbeat CPU 0 instructions: 80000000 cycles: 25452071 heartbeat IPC: 3.14378 cumulative IPC: 3.14316 (Simulation time: 0 hr 8 min 16 sec) 
Heartbeat CPU 0 instructions: 90000001 cycles: 28633183 heartbeat IPC: 3.14356 cumulative IPC: 3.14321 (Simulation time: 0 hr 9 min 6 sec) 
Heartbeat CPU 0 instructions: 100000002 cycles: 31814820 heartbeat IPC: 3.14304 cumulative IPC: 3.14319 (Simulation time: 0 hr 9 min 56 sec) 
Heartbeat CPU 0 instructions: 110000000 cycles: 34996411 heartbeat IPC: 3.14308 cumulative IPC: 3.14318 (Simulation time: 0 hr 10 min 46 sec) 
Heartbeat CPU 0 instructions: 120000000 cycles: 38177859 heartbeat IPC: 3.14322 cumulative IPC: 3.14318 (Simulation time: 0 hr 11 min 36 sec) 
Heartbeat CPU 0 instructions: 130000001 cycles: 41359292 heartbeat IPC: 3.14324 cumulative IPC: 3.14319 (Simulation time: 0 hr 12 min 26 sec) 
Heartbeat CPU 0 instructions: 140000003 cycles: 44540634 heartbeat IPC: 3.14333 cumulative IPC: 3.1432 (Simulation time: 0 hr 13 min 15 sec) 
Heartbeat CPU 0 instructions: 150000002 cycles: 47721428 heartbeat IPC: 3.14387 cumulative IPC: 3.14324 (Simulation time: 0 hr 14 min 5 sec) 
Heartbeat CPU 0 instructions: 160000004 cycles: 50902391 heartbeat IPC: 3.1437 cumulative IPC: 3.14327 (Simulation time: 0 hr 15 min 17 sec) 
Heartbeat CPU 0 instructions: 170000001 cycles: 54083614 heartbeat IPC: 3.14344 cumulative IPC: 3.14328 (Simulation time: 0 hr 16 min 39 sec) 
Heartbeat CPU 0 instructions: 180000004 cycles: 57264911 heartbeat IPC: 3.14337 cumulative IPC: 3.14329 (Simulation time: 0 hr 17 min 42 sec) 
Heartbeat CPU 0 instructions: 190000001 cycles: 60446139 heartbeat IPC: 3.14344 cumulative IPC: 3.14329 (Simulation time: 0 hr 18 min 31 sec) 
Heartbeat CPU 0 instructions: 200000002 cycles: 63627417 heartbeat IPC: 3.14339 cumulative IPC: 3.1433 (Simulation time: 0 hr 19 min 34 sec) 
Heartbeat CPU 0 instructions: 210000001 cycles: 66808842 heartbeat IPC: 3.14325 cumulative IPC: 3.1433 (Simulation time: 0 hr 21 min 2 sec) 
Heartbeat CPU 0 instructions: 220000000 cycles: 69990260 heartbeat IPC: 3.14325 cumulative IPC: 3.14329 (Simulation time: 0 hr 22 min 8 sec) 
Heartbeat CPU 0 instructions: 230000003 cycles: 73171786 heartbeat IPC: 3.14315 cumulative IPC: 3.14329 (Simulation time: 0 hr 22 min 57 sec) 
Heartbeat CPU 0 instructions: 240000001 cycles: 76353253 heartbeat IPC: 3.1432 cumulative IPC: 3.14328 (Simulation time: 0 hr 23 min 52 sec) 
Heartbeat CPU 0 instructions: 250000003 cycles: 79534644 heartbeat IPC: 3.14328 cumulative IPC: 3.14328 (Simulation time: 0 hr 24 min 57 sec) 
Heartbeat CPU 0 instructions: 260000000 cycles: 82715852 heartbeat IPC: 3.14346 cumulative IPC: 3.14329 (Simulation time: 0 hr 25 min 47 sec) 
Heartbeat CPU 0 instructions: 270000001 cycles: 85896705 heartbeat IPC: 3.14381 cumulative IPC: 3.14331 (Simulation time: 0 hr 26 min 35 sec) 
Heartbeat CPU 0 instructions: 280000001 cycles: 89077015 heartbeat IPC: 3.14435 cumulative IPC: 3.14335 (Simulation time: 0 hr 27 min 23 sec) 
Heartbeat CPU 0 instructions: 290000000 cycles: 92258174 heartbeat IPC: 3.14351 cumulative IPC: 3.14335 (Simulation time: 0 hr 28 min 11 sec) 
Heartbeat CPU 0 instructions: 300000000 cycles: 95437158 heartbeat IPC: 3.14566 cumulative IPC: 3.14343 (Simulation time: 0 hr 28 min 58 sec) 
Heartbeat CPU 0 instructions: 310000003 cycles: 98617523 heartbeat IPC: 3.14429 cumulative IPC: 3.14346 (Simulation time: 0 hr 29 min 46 sec) 
Heartbeat CPU 0 instructions: 320000003 cycles: 101791294 heartbeat IPC: 3.15083 cumulative IPC: 3.14369 (Simulation time: 0 hr 30 min 34 sec) 
Heartbeat CPU 0 instructions: 330000000 cycles: 104972134 heartbeat IPC: 3.14382 cumulative IPC: 3.14369 (Simulation time: 0 hr 31 min 22 sec) 
Heartbeat CPU 0 instructions: 340000003 cycles: 108150094 heartbeat IPC: 3.14667 cumulative IPC: 3.14378 (Simulation time: 0 hr 32 min 16 sec) 
Heartbeat CPU 0 instructions: 350000000 cycles: 111330608 heartbeat IPC: 3.14415 cumulative IPC: 3.14379 (Simulation time: 0 hr 33 min 41 sec) 
Heartbeat CPU 0 instructions: 360000001 cycles: 114511598 heartbeat IPC: 3.14368 cumulative IPC: 3.14379 (Simulation time: 0 hr 35 min 7 sec) 
Heartbeat CPU 0 instructions: 370000004 cycles: 117693494 heartbeat IPC: 3.14278 cumulative IPC: 3.14376 (Simulation time: 0 hr 36 min 0 sec) 
Heartbeat CPU 0 instructions: 380000000 cycles: 120874424 heartbeat IPC: 3.14373 cumulative IPC: 3.14376 (Simulation time: 0 hr 36 min 48 sec) 
Heartbeat CPU 0 instructions: 390000000 cycles: 124055624 heartbeat IPC: 3.14347 cumulative IPC: 3.14375 (Simulation time: 0 hr 37 min 35 sec) 
Heartbeat CPU 0 instructions: 400000003 cycles: 127237191 heartbeat IPC: 3.14311 cumulative IPC: 3.14373 (Simulation time: 0 hr 38 min 22 sec) 
Heartbeat CPU 0 instructions: 410000003 cycles: 130418651 heartbeat IPC: 3.14321 cumulative IPC: 3.14372 (Simulation time: 0 hr 39 min 9 sec) 
Heartbeat CPU 0 instructions: 420000004 cycles: 133600181 heartbeat IPC: 3.14314 cumulative IPC: 3.14371 (Simulation time: 0 hr 39 min 56 sec) 
Heartbeat CPU 0 instructions: 430000000 cycles: 136781657 heartbeat IPC: 3.14319 cumulative IPC: 3.1437 (Simulation time: 0 hr 40 min 43 sec) 
Heartbeat CPU 0 instructions: 440000001 cycles: 139963075 heartbeat IPC: 3.14325 cumulative IPC: 3.14369 (Simulation time: 0 hr 41 min 30 sec) 
Heartbeat CPU 0 instructions: 450000002 cycles: 143144701 heartbeat IPC: 3.14305 cumulative IPC: 3.14367 (Simulation time: 0 hr 42 min 17 sec) 
Heartbeat CPU 0 instructions: 460000000 cycles: 146326341 heartbeat IPC: 3.14303 cumulative IPC: 3.14366 (Simulation time: 0 hr 43 min 7 sec) 
Heartbeat CPU 0 instructions: 470000000 cycles: 149507919 heartbeat IPC: 3.14309 cumulative IPC: 3.14365 (Simulation time: 0 hr 44 min 20 sec) 
Heartbeat CPU 0 instructions: 480000003 cycles: 152689530 heartbeat IPC: 3.14306 cumulative IPC: 3.14363 (Simulation time: 0 hr 45 min 33 sec) 
Heartbeat CPU 0 instructions: 490000000 cycles: 155871201 heartbeat IPC: 3.143 cumulative IPC: 3.14362 (Simulation time: 0 hr 46 min 33 sec) 
Heartbeat CPU 0 instructions: 500000003 cycles: 158668106 heartbeat IPC: 3.57538 cumulative IPC: 3.15123 (Simulation time: 0 hr 47 min 26 sec) 

Warmup complete CPU 0 instructions: 500000003 cycles: 158668106 (Simulation time: 0 hr 47 min 26 sec) 

Heartbeat CPU 0 instructions: 510000000 cycles: 169527863 heartbeat IPC: 0.920831 cumulative IPC: 0.920831 (Simulation time: 0 hr 49 min 16 sec) 
Heartbeat CPU 0 instructions: 520000000 cycles: 179792781 heartbeat IPC: 0.974192 cumulative IPC: 0.94676 (Simulation time: 0 hr 51 min 12 sec) 
Heartbeat CPU 0 instructions: 530000003 cycles: 190035897 heartbeat IPC: 0.976266 cumulative IPC: 0.956395 (Simulation time: 0 hr 52 min 56 sec) 
Heartbeat CPU 0 instructions: 540000002 cycles: 200293205 heartbeat IPC: 0.974915 cumulative IPC: 0.960959 (Simulation time: 0 hr 54 min 36 sec) 
Heartbeat CPU 0 instructions: 550000000 cycles: 210539406 heartbeat IPC: 0.975971 cumulative IPC: 0.963924 (Simulation time: 0 hr 55 min 58 sec) 
Heartbeat CPU 0 instructions: 560000000 cycles: 220792483 heartbeat IPC: 0.975317 cumulative IPC: 0.965804 (Simulation time: 0 hr 57 min 20 sec) 
Heartbeat CPU 0 instructions: 570000000 cycles: 231043116 heartbeat IPC: 0.97555 cumulative IPC: 0.967185 (Simulation time: 0 hr 58 min 43 sec) 
Heartbeat CPU 0 instructions: 580000000 cycles: 241286789 heartbeat IPC: 0.976212 cumulative IPC: 0.968304 (Simulation time: 1 hr 0 min 32 sec) 
Heartbeat CPU 0 instructions: 590000001 cycles: 251540608 heartbeat IPC: 0.975246 cumulative IPC: 0.96907 (Simulation time: 1 hr 2 min 48 sec) 
Heartbeat CPU 0 instructions: 600000000 cycles: 261772883 heartbeat IPC: 0.9773 cumulative IPC: 0.969887 (Simulation time: 1 hr 4 min 21 sec) 
Heartbeat CPU 0 instructions: 610000003 cycles: 272033943 heartbeat IPC: 0.974558 cumulative IPC: 0.97031 (Simulation time: 1 hr 6 min 16 sec) 
Heartbeat CPU 0 instructions: 620000000 cycles: 282263001 heartbeat IPC: 0.977607 cumulative IPC: 0.970914 (Simulation time: 1 hr 8 min 13 sec) 
Heartbeat CPU 0 instructions: 630000003 cycles: 292524774 heartbeat IPC: 0.974491 cumulative IPC: 0.971188 (Simulation time: 1 hr 9 min 37 sec) 
Heartbeat CPU 0 instructions: 640000001 cycles: 302757237 heartbeat IPC: 0.977282 cumulative IPC: 0.971621 (Simulation time: 1 hr 10 min 53 sec) 
Heartbeat CPU 0 instructions: 650000003 cycles: 313010970 heartbeat IPC: 0.975255 cumulative IPC: 0.971862 (Simulation time: 1 hr 12 min 16 sec) 
Heartbeat CPU 0 instructions: 660000000 cycles: 323248256 heartbeat IPC: 0.976821 cumulative IPC: 0.972171 (Simulation time: 1 hr 13 min 46 sec) 
Heartbeat CPU 0 instructions: 670000001 cycles: 337050952 heartbeat IPC: 0.724496 cumulative IPC: 0.953006 (Simulation time: 1 hr 15 min 23 sec) 
Heartbeat CPU 0 instructions: 680000000 cycles: 343797695 heartbeat IPC: 1.4822 cumulative IPC: 0.972292 (Simulation time: 1 hr 16 min 45 sec) 
Heartbeat CPU 0 instructions: 690000001 cycles: 359486382 heartbeat IPC: 0.637402 cumulative IPC: 0.946129 (Simulation time: 1 hr 19 min 11 sec) 
Heartbeat CPU 0 instructions: 700000003 cycles: 377768723 heartbeat IPC: 0.546976 cumulative IPC: 0.912823 (Simulation time: 1 hr 22 min 6 sec) 
Heartbeat CPU 0 instructions: 710000002 cycles: 396409569 heartbeat IPC: 0.536456 cumulative IPC: 0.883312 (Simulation time: 1 hr 25 min 24 sec) 
Heartbeat CPU 0 instructions: 720000003 cycles: 414048370 heartbeat IPC: 0.566932 cumulative IPC: 0.86146 (Simulation time: 1 hr 29 min 11 sec) 
Heartbeat CPU 0 instructions: 730000002 cycles: 424461036 heartbeat IPC: 0.960369 cumulative IPC: 0.865335 (Simulation time: 1 hr 31 min 33 sec) 
Heartbeat CPU 0 instructions: 740000000 cycles: 433549861 heartbeat IPC: 1.10025 cumulative IPC: 0.873103 (Simulation time: 1 hr 32 min 51 sec) 
Heartbeat CPU 0 instructions: 750000001 cycles: 443229231 heartbeat IPC: 1.03313 cumulative IPC: 0.878546 (Simulation time: 1 hr 34 min 18 sec) 
Heartbeat CPU 0 instructions: 760000004 cycles: 452917633 heartbeat IPC: 1.03216 cumulative IPC: 0.883604 (Simulation time: 1 hr 35 min 39 sec) 
Heartbeat CPU 0 instructions: 770000003 cycles: 462608136 heartbeat IPC: 1.03194 cumulative IPC: 0.888333 (Simulation time: 1 hr 37 min 6 sec) 
Heartbeat CPU 0 instructions: 780000003 cycles: 472303109 heartbeat IPC: 1.03146 cumulative IPC: 0.892757 (Simulation time: 1 hr 38 min 23 sec) 
Heartbeat CPU 0 instructions: 790000001 cycles: 481983782 heartbeat IPC: 1.03299 cumulative IPC: 0.896956 (Simulation time: 1 hr 39 min 56 sec) 
Heartbeat CPU 0 instructions: 800000000 cycles: 491673227 heartbeat IPC: 1.03205 cumulative IPC: 0.900887 (Simulation time: 1 hr 42 min 11 sec) 
Heartbeat CPU 0 instructions: 810000000 cycles: 501376115 heartbeat IPC: 1.03062 cumulative IPC: 0.90456 (Simulation time: 1 hr 43 min 42 sec) 
Heartbeat CPU 0 instructions: 820000001 cycles: 511793222 heartbeat IPC: 0.95996 cumulative IPC: 0.906194 (Simulation time: 1 hr 45 min 51 sec) 
Heartbeat CPU 0 instructions: 830000004 cycles: 522031348 heartbeat IPC: 0.976742 cumulative IPC: 0.908182 (Simulation time: 1 hr 47 min 25 sec) 
Heartbeat CPU 0 instructions: 840000000 cycles: 532579796 heartbeat IPC: 0.948006 cumulative IPC: 0.909306 (Simulation time: 1 hr 48 min 57 sec) 
Heartbeat CPU 0 instructions: 850000002 cycles: 549441757 heartbeat IPC: 0.593051 cumulative IPC: 0.895659 (Simulation time: 1 hr 52 min 26 sec) 
Heartbeat CPU 0 instructions: 860000000 cycles: 559110704 heartbeat IPC: 1.03424 cumulative IPC: 0.899005 (Simulation time: 1 hr 53 min 38 sec) 
Heartbeat CPU 0 instructions: 870000004 cycles: 567911954 heartbeat IPC: 1.1362 cumulative IPC: 0.904106 (Simulation time: 1 hr 54 min 50 sec) 
Heartbeat CPU 0 instructions: 880000002 cycles: 576855501 heartbeat IPC: 1.11812 cumulative IPC: 0.908684 (Simulation time: 1 hr 55 min 48 sec) 
Heartbeat CPU 0 instructions: 890000000 cycles: 585688714 heartbeat IPC: 1.13209 cumulative IPC: 0.913305 (Simulation time: 1 hr 56 min 41 sec) 
Heartbeat CPU 0 instructions: 900000000 cycles: 594541704 heartbeat IPC: 1.12956 cumulative IPC: 0.917697 (Simulation time: 1 hr 57 min 33 sec) 
Heartbeat CPU 0 instructions: 910000000 cycles: 603410968 heartbeat IPC: 1.12749 cumulative IPC: 0.921881 (Simulation time: 1 hr 58 min 43 sec) 
Heartbeat CPU 0 instructions: 920000001 cycles: 612282061 heartbeat IPC: 1.12726 cumulative IPC: 0.925897 (Simulation time: 1 hr 59 min 47 sec) 
Heartbeat CPU 0 instructions: 930000002 cycles: 621156332 heartbeat IPC: 1.12685 cumulative IPC: 0.929753 (Simulation time: 2 hr 0 min 48 sec) 
Heartbeat CPU 0 instructions: 940000000 cycles: 630066839 heartbeat IPC: 1.12227 cumulative IPC: 0.933392 (Simulation time: 2 hr 2 min 2 sec) 
Heartbeat CPU 0 instructions: 950000002 cycles: 638988797 heartbeat IPC: 1.12083 cumulative IPC: 0.936874 (Simulation time: 2 hr 3 min 19 sec) 
Heartbeat CPU 0 instructions: 960000002 cycles: 647911233 heartbeat IPC: 1.12077 cumulative IPC: 0.940228 (Simulation time: 2 hr 4 min 49 sec) 
Heartbeat CPU 0 instructions: 970000004 cycles: 656799039 heartbeat IPC: 1.12514 cumulative IPC: 0.943527 (Simulation time: 2 hr 5 min 57 sec) 
Heartbeat CPU 0 instructions: 980000000 cycles: 665763027 heartbeat IPC: 1.11557 cumulative IPC: 0.946568 (Simulation time: 2 hr 7 min 26 sec) 
Heartbeat CPU 0 instructions: 990000004 cycles: 691742588 heartbeat IPC: 0.384918 cumulative IPC: 0.919196 (Simulation time: 2 hr 12 min 49 sec) 
Heartbeat CPU 0 instructions: 1000000001 cycles: 698835220 heartbeat IPC: 1.40991 cumulative IPC: 0.925639 (Simulation time: 2 hr 13 min 53 sec) 
Heartbeat CPU 0 instructions: 1010000001 cycles: 705379665 heartbeat IPC: 1.52801 cumulative IPC: 0.93285 (Simulation time: 2 hr 14 min 55 sec) 
Heartbeat CPU 0 instructions: 1020000004 cycles: 711892215 heartbeat IPC: 1.5355 cumulative IPC: 0.939945 (Simulation time: 2 hr 15 min 56 sec) 
Heartbeat CPU 0 instructions: 1030000003 cycles: 718654952 heartbeat IPC: 1.47869 cumulative IPC: 0.946451 (Simulation time: 2 hr 17 min 47 sec) 
Heartbeat CPU 0 instructions: 1040000003 cycles: 725394426 heartbeat IPC: 1.4838 cumulative IPC: 0.952841 (Simulation time: 2 hr 19 min 39 sec) 
Heartbeat CPU 0 instructions: 1050000002 cycles: 732029818 heartbeat IPC: 1.50707 cumulative IPC: 0.959255 (Simulation time: 2 hr 21 min 29 sec) 
Heartbeat CPU 0 instructions: 1060000002 cycles: 738459004 heartbeat IPC: 1.55541 cumulative IPC: 0.965865 (Simulation time: 2 hr 22 min 28 sec) 
Heartbeat CPU 0 instructions: 1070000002 cycles: 745053078 heartbeat IPC: 1.51651 cumulative IPC: 0.972058 (Simulation time: 2 hr 23 min 27 sec) 
Heartbeat CPU 0 instructions: 1080000004 cycles: 751844589 heartbeat IPC: 1.47243 cumulative IPC: 0.977787 (Simulation time: 2 hr 25 min 12 sec) 
Heartbeat CPU 0 instructions: 1090000001 cycles: 758618687 heartbeat IPC: 1.47621 cumulative IPC: 0.983414 (Simulation time: 2 hr 26 min 40 sec) 
Heartbeat CPU 0 instructions: 1100000002 cycles: 765326246 heartbeat IPC: 1.49086 cumulative IPC: 0.989025 (Simulation time: 2 hr 27 min 41 sec) 
Heartbeat CPU 0 instructions: 1110000003 cycles: 771867698 heartbeat IPC: 1.52871 cumulative IPC: 0.994782 (Simulation time: 2 hr 28 min 40 sec) 
Heartbeat CPU 0 instructions: 1120000003 cycles: 778416910 heartbeat IPC: 1.5269 cumulative IPC: 1.00041 (Simulation time: 2 hr 29 min 40 sec) 
Heartbeat CPU 0 instructions: 1130000000 cycles: 785056899 heartbeat IPC: 1.50603 cumulative IPC: 1.00577 (Simulation time: 2 hr 30 min 40 sec) 
Heartbeat CPU 0 instructions: 1140000000 cycles: 791834502 heartbeat IPC: 1.47545 cumulative IPC: 1.01079 (Simulation time: 2 hr 31 min 40 sec) 
Heartbeat CPU 0 instructions: 1150000001 cycles: 798605376 heartbeat IPC: 1.47691 cumulative IPC: 1.01572 (Simulation time: 2 hr 32 min 41 sec) 
Heartbeat CPU 0 instructions: 1160000002 cycles: 805342211 heartbeat IPC: 1.48438 cumulative IPC: 1.02061 (Simulation time: 2 hr 33 min 41 sec) 
Heartbeat CPU 0 instructions: 1170000002 cycles: 812085650 heartbeat IPC: 1.48292 cumulative IPC: 1.02538 (Simulation time: 2 hr 34 min 56 sec) 
Heartbeat CPU 0 instructions: 1180000000 cycles: 818607583 heartbeat IPC: 1.53329 cumulative IPC: 1.0304 (Simulation time: 2 hr 36 min 36 sec) 
Heartbeat CPU 0 instructions: 1190000004 cycles: 825153845 heartbeat IPC: 1.52759 cumulative IPC: 1.03528 (Simulation time: 2 hr 38 min 9 sec) 
Heartbeat CPU 0 instructions: 1200000001 cycles: 831918516 heartbeat IPC: 1.47827 cumulative IPC: 1.03973 (Simulation time: 2 hr 39 min 52 sec) 
Heartbeat CPU 0 instructions: 1210000003 cycles: 838741706 heartbeat IPC: 1.46559 cumulative IPC: 1.044 (Simulation time: 2 hr 41 min 43 sec) 
Heartbeat CPU 0 instructions: 1220000000 cycles: 845509215 heartbeat IPC: 1.47765 cumulative IPC: 1.04828 (Simulation time: 2 hr 43 min 26 sec) 
Heartbeat CPU 0 instructions: 1230000000 cycles: 852068486 heartbeat IPC: 1.52456 cumulative IPC: 1.05278 (Simulation time: 2 hr 44 min 26 sec) 
Heartbeat CPU 0 instructions: 1240000002 cycles: 858514611 heartbeat IPC: 1.55132 cumulative IPC: 1.05737 (Simulation time: 2 hr 45 min 25 sec) 
Heartbeat CPU 0 instructions: 1250000000 cycles: 867811709 heartbeat IPC: 1.0756 cumulative IPC: 1.05761 (Simulation time: 2 hr 47 min 24 sec) 
Heartbeat CPU 0 instructions: 1260000000 cycles: 883078577 heartbeat IPC: 0.655013 cumulative IPC: 1.04913 (Simulation time: 2 hr 49 min 30 sec) 
Heartbeat CPU 0 instructions: 1270000004 cycles: 896156697 heartbeat IPC: 0.764636 cumulative IPC: 1.04408 (Simulation time: 2 hr 51 min 11 sec) 
Heartbeat CPU 0 instructions: 1280000000 cycles: 911563468 heartbeat IPC: 0.649065 cumulative IPC: 1.036 (Simulation time: 2 hr 53 min 5 sec) 
Heartbeat CPU 0 instructions: 1290000001 cycles: 923047159 heartbeat IPC: 0.8708 cumulative IPC: 1.03352 (Simulation time: 2 hr 54 min 31 sec) 
Heartbeat CPU 0 instructions: 1300000003 cycles: 931558565 heartbeat IPC: 1.17489 cumulative IPC: 1.03508 (Simulation time: 2 hr 56 min 0 sec) 
Heartbeat CPU 0 instructions: 1310000002 cycles: 938810604 heartbeat IPC: 1.37892 cumulative IPC: 1.03827 (Simulation time: 2 hr 57 min 26 sec) 
Heartbeat CPU 0 instructions: 1320000000 cycles: 944975741 heartbeat IPC: 1.62202 cumulative IPC: 1.04285 (Simulation time: 2 hr 58 min 30 sec) 
Heartbeat CPU 0 instructions: 1330000004 cycles: 950615255 heartbeat IPC: 1.7732 cumulative IPC: 1.04805 (Simulation time: 2 hr 59 min 34 sec) 
Heartbeat CPU 0 instructions: 1340000000 cycles: 957191837 heartbeat IPC: 1.52055 cumulative IPC: 1.05194 (Simulation time: 3 hr 0 min 44 sec) 
Heartbeat CPU 0 instructions: 1350000001 cycles: 963434353 heartbeat IPC: 1.60192 cumulative IPC: 1.05621 (Simulation time: 3 hr 1 min 49 sec) 
Heartbeat CPU 0 instructions: 1360000003 cycles: 969281643 heartbeat IPC: 1.71019 cumulative IPC: 1.06092 (Simulation time: 3 hr 2 min 50 sec) 
Heartbeat CPU 0 instructions: 1370000003 cycles: 975372861 heartbeat IPC: 1.64171 cumulative IPC: 1.06526 (Simulation time: 3 hr 3 min 56 sec) 
Heartbeat CPU 0 instructions: 1380000003 cycles: 981530365 heartbeat IPC: 1.62403 cumulative IPC: 1.06944 (Simulation time: 3 hr 5 min 3 sec) 
Heartbeat CPU 0 instructions: 1390000002 cycles: 987479017 heartbeat IPC: 1.68105 cumulative IPC: 1.07383 (Simulation time: 3 hr 6 min 6 sec) 
Heartbeat CPU 0 instructions: 1400000003 cycles: 993006329 heartbeat IPC: 1.8092 cumulative IPC: 1.0787 (Simulation time: 3 hr 7 min 7 sec) 
Heartbeat CPU 0 instructions: 1410000000 cycles: 998442206 heartbeat IPC: 1.83963 cumulative IPC: 1.08362 (Simulation time: 3 hr 8 min 10 sec) 
Heartbeat CPU 0 instructions: 1420000001 cycles: 1004679301 heartbeat IPC: 1.60331 cumulative IPC: 1.08746 (Simulation time: 3 hr 9 min 13 sec) 
Heartbeat CPU 0 instructions: 1430000003 cycles: 1010448506 heartbeat IPC: 1.73334 cumulative IPC: 1.09183 (Simulation time: 3 hr 10 min 11 sec) 
Heartbeat CPU 0 instructions: 1440000001 cycles: 1020419525 heartbeat IPC: 1.00291 cumulative IPC: 1.0908 (Simulation time: 3 hr 11 min 43 sec) 
Heartbeat CPU 0 instructions: 1450000003 cycles: 1032292050 heartbeat IPC: 0.842281 cumulative IPC: 1.08742 (Simulation time: 3 hr 13 min 45 sec) 
Heartbeat CPU 0 instructions: 1460000002 cycles: 1041386330 heartbeat IPC: 1.09959 cumulative IPC: 1.08755 (Simulation time: 3 hr 15 min 31 sec) 
Heartbeat CPU 0 instructions: 1470000000 cycles: 1049949732 heartbeat IPC: 1.16776 cumulative IPC: 1.08832 (Simulation time: 3 hr 17 min 13 sec) 
Heartbeat CPU 0 instructions: 1480000002 cycles: 1062565356 heartbeat IPC: 0.792668 cumulative IPC: 1.08419 (Simulation time: 3 hr 19 min 15 sec) 
Heartbeat CPU 0 instructions: 1490000002 cycles: 1074431455 heartbeat IPC: 0.842737 cumulative IPC: 1.08107 (Simulation time: 3 hr 21 min 11 sec) 
Heartbeat CPU 0 instructions: 1500000001 cycles: 1084007906 heartbeat IPC: 1.04423 cumulative IPC: 1.08068 (Simulation time: 3 hr 22 min 54 sec) 
Heartbeat CPU 0 instructions: 1510000004 cycles: 1093518584 heartbeat IPC: 1.05145 cumulative IPC: 1.08039 (Simulation time: 3 hr 24 min 33 sec) 
Heartbeat CPU 0 instructions: 1520000004 cycles: 1101968068 heartbeat IPC: 1.1835 cumulative IPC: 1.08131 (Simulation time: 3 hr 26 min 7 sec) 
Heartbeat CPU 0 instructions: 1530000001 cycles: 1108867247 heartbeat IPC: 1.44945 cumulative IPC: 1.08398 (Simulation time: 3 hr 27 min 31 sec) 
Heartbeat CPU 0 instructions: 1540000001 cycles: 1116730613 heartbeat IPC: 1.27172 cumulative IPC: 1.08552 (Simulation time: 3 hr 28 min 55 sec) 
Heartbeat CPU 0 instructions: 1550000003 cycles: 1125016188 heartbeat IPC: 1.20692 cumulative IPC: 1.08657 (Simulation time: 3 hr 30 min 16 sec) 
Heartbeat CPU 0 instructions: 1560000004 cycles: 1135308431 heartbeat IPC: 0.971606 cumulative IPC: 1.08535 (Simulation time: 3 hr 31 min 54 sec) 
Heartbeat CPU 0 instructions: 1570000003 cycles: 1145133139 heartbeat IPC: 1.01784 cumulative IPC: 1.08468 (Simulation time: 3 hr 33 min 30 sec) 
Heartbeat CPU 0 instructions: 1580000003 cycles: 1157521036 heartbeat IPC: 0.80724 cumulative IPC: 1.08124 (Simulation time: 3 hr 35 min 22 sec) 
Heartbeat CPU 0 instructions: 1590000000 cycles: 1171213000 heartbeat IPC: 0.730355 cumulative IPC: 1.0765 (Simulation time: 3 hr 37 min 23 sec) 
Heartbeat CPU 0 instructions: 1600000002 cycles: 1185147222 heartbeat IPC: 0.717658 cumulative IPC: 1.07162 (Simulation time: 3 hr 39 min 32 sec) 
Heartbeat CPU 0 instructions: 1610000000 cycles: 1196636216 heartbeat IPC: 0.870398 cumulative IPC: 1.0694 (Simulation time: 3 hr 41 min 27 sec) 
Heartbeat CPU 0 instructions: 1620000003 cycles: 1213255111 heartbeat IPC: 0.601725 cumulative IPC: 1.06203 (Simulation time: 3 hr 43 min 30 sec) 
Heartbeat CPU 0 instructions: 1630000001 cycles: 1228572133 heartbeat IPC: 0.652868 cumulative IPC: 1.05617 (Simulation time: 3 hr 45 min 37 sec) 
Heartbeat CPU 0 instructions: 1640000002 cycles: 1249396818 heartbeat IPC: 0.480199 cumulative IPC: 1.04517 (Simulation time: 3 hr 48 min 14 sec) 
Heartbeat CPU 0 instructions: 1650000000 cycles: 1260002726 heartbeat IPC: 0.94287 cumulative IPC: 1.04419 (Simulation time: 3 hr 49 min 43 sec) 
Heartbeat CPU 0 instructions: 1660000004 cycles: 1269098823 heartbeat IPC: 1.09937 cumulative IPC: 1.04464 (Simulation time: 3 hr 51 min 7 sec) 
Heartbeat CPU 0 instructions: 1670000003 cycles: 1277175976 heartbeat IPC: 1.23806 cumulative IPC: 1.04604 (Simulation time: 3 hr 52 min 32 sec) 
Heartbeat CPU 0 instructions: 1680000004 cycles: 1284967146 heartbeat IPC: 1.2835 cumulative IPC: 1.04768 (Simulation time: 3 hr 53 min 55 sec) 
Heartbeat CPU 0 instructions: 1690000002 cycles: 1293378492 heartbeat IPC: 1.18887 cumulative IPC: 1.04873 (Simulation time: 3 hr 55 min 16 sec) 
Heartbeat CPU 0 instructions: 1700000001 cycles: 1301754913 heartbeat IPC: 1.19383 cumulative IPC: 1.04979 (Simulation time: 3 hr 56 min 36 sec) 
Heartbeat CPU 0 instructions: 1710000004 cycles: 1310883431 heartbeat IPC: 1.09547 cumulative IPC: 1.05015 (Simulation time: 3 hr 58 min 10 sec) 
Heartbeat CPU 0 instructions: 1720000001 cycles: 1320327452 heartbeat IPC: 1.05887 cumulative IPC: 1.05022 (Simulation time: 3 hr 59 min 44 sec) 
Heartbeat CPU 0 instructions: 1730000004 cycles: 1330408293 heartbeat IPC: 0.991981 cumulative IPC: 1.04972 (Simulation time: 4 hr 1 min 15 sec) 
Heartbeat CPU 0 instructions: 1740000002 cycles: 1342976126 heartbeat IPC: 0.795682 cumulative IPC: 1.04702 (Simulation time: 4 hr 3 min 1 sec) 
Heartbeat CPU 0 instructions: 1750000004 cycles: 1353818320 heartbeat IPC: 0.922323 cumulative IPC: 1.04589 (Simulation time: 4 hr 4 min 33 sec) 
Heartbeat CPU 0 instructions: 1760000000 cycles: 1362998469 heartbeat IPC: 1.08931 cumulative IPC: 1.04622 (Simulation time: 4 hr 5 min 55 sec) 
Heartbeat CPU 0 instructions: 1770000003 cycles: 1372012995 heartbeat IPC: 1.10932 cumulative IPC: 1.04669 (Simulation time: 4 hr 7 min 15 sec) 
Heartbeat CPU 0 instructions: 1780000001 cycles: 1381070081 heartbeat IPC: 1.10411 cumulative IPC: 1.04712 (Simulation time: 4 hr 8 min 36 sec) 
Heartbeat CPU 0 instructions: 1790000003 cycles: 1391762630 heartbeat IPC: 0.935231 cumulative IPC: 1.04615 (Simulation time: 4 hr 10 min 6 sec) 
Heartbeat CPU 0 instructions: 1800000000 cycles: 1404263849 heartbeat IPC: 0.799922 cumulative IPC: 1.04368 (Simulation time: 4 hr 11 min 49 sec) 
Heartbeat CPU 0 instructions: 1810000004 cycles: 1421416206 heartbeat IPC: 0.58301 cumulative IPC: 1.03742 (Simulation time: 4 hr 14 min 8 sec) 
Heartbeat CPU 0 instructions: 1820000002 cycles: 1426469235 heartbeat IPC: 1.97901 cumulative IPC: 1.04117 (Simulation time: 4 hr 15 min 4 sec) 
Heartbeat CPU 0 instructions: 1830000001 cycles: 1432364774 heartbeat IPC: 1.6962 cumulative IPC: 1.0442 (Simulation time: 4 hr 16 min 3 sec) 
Heartbeat CPU 0 instructions: 1840000004 cycles: 1438236124 heartbeat IPC: 1.70319 cumulative IPC: 1.04723 (Simulation time: 4 hr 17 min 1 sec) 
Heartbeat CPU 0 instructions: 1850000004 cycles: 1445782234 heartbeat IPC: 1.32519 cumulative IPC: 1.04886 (Simulation time: 4 hr 18 min 9 sec) 
Heartbeat CPU 0 instructions: 1860000001 cycles: 1452655063 heartbeat IPC: 1.455 cumulative IPC: 1.05102 (Simulation time: 4 hr 19 min 16 sec) 
Heartbeat CPU 0 instructions: 1870000004 cycles: 1457758641 heartbeat IPC: 1.95941 cumulative IPC: 1.05458 (Simulation time: 4 hr 20 min 12 sec) 
Heartbeat CPU 0 instructions: 1880000001 cycles: 1462872021 heartbeat IPC: 1.95565 cumulative IPC: 1.05812 (Simulation time: 4 hr 21 min 6 sec) 
Heartbeat CPU 0 instructions: 1890000003 cycles: 1468391331 heartbeat IPC: 1.81182 cumulative IPC: 1.06129 (Simulation time: 4 hr 22 min 0 sec) 
Heartbeat CPU 0 instructions: 1900000004 cycles: 1476292257 heartbeat IPC: 1.26567 cumulative IPC: 1.06252 (Simulation time: 4 hr 23 min 12 sec) 
Heartbeat CPU 0 instructions: 1910000002 cycles: 1482078443 heartbeat IPC: 1.72825 cumulative IPC: 1.06543 (Simulation time: 4 hr 24 min 15 sec) 
Heartbeat CPU 0 instructions: 1920000001 cycles: 1487135559 heartbeat IPC: 1.97741 cumulative IPC: 1.0689 (Simulation time: 4 hr 25 min 8 sec) 
Heartbeat CPU 0 instructions: 1930000002 cycles: 1492716075 heartbeat IPC: 1.79195 cumulative IPC: 1.07193 (Simulation time: 4 hr 26 min 2 sec) 
Heartbeat CPU 0 instructions: 1940000000 cycles: 1500167203 heartbeat IPC: 1.34208 cumulative IPC: 1.07343 (Simulation time: 4 hr 27 min 10 sec) 
Heartbeat CPU 0 instructions: 1950000001 cycles: 1505148676 heartbeat IPC: 2.00744 cumulative IPC: 1.07688 (Simulation time: 4 hr 28 min 7 sec) 
Heartbeat CPU 0 instructions: 1960000003 cycles: 1510114773 heartbeat IPC: 2.01365 cumulative IPC: 1.08032 (Simulation time: 4 hr 28 min 59 sec) 
Heartbeat CPU 0 instructions: 1970000001 cycles: 1515583952 heartbeat IPC: 1.82843 cumulative IPC: 1.08334 (Simulation time: 4 hr 29 min 53 sec) 
Heartbeat CPU 0 instructions: 1980000004 cycles: 1523100652 heartbeat IPC: 1.33037 cumulative IPC: 1.0847 (Simulation time: 4 hr 31 min 1 sec) 
Heartbeat CPU 0 instructions: 1990000001 cycles: 1528090143 heartbeat IPC: 2.00421 cumulative IPC: 1.08805 (Simulation time: 4 hr 31 min 58 sec) 
*** Reached end of trace: traces/481.wrf-1170B.champsimtrace.xz
Heartbeat CPU 0 instructions: 2000000000 cycles: 1534229642 heartbeat IPC: 1.6288 cumulative IPC: 1.09046 (Simulation time: 4 hr 32 min 57 sec) 
Finished CPU 0 instructions: 1500000002 cycles: 1375561537 cumulative IPC: 1.09046 (Simulation time: 4 hr 32 min 57 sec) 

ChampSim completed all CPUs

Region of Interest Statistics

CPU 0 cumulative IPC: 1.09046 instructions: 1500000002 cycles: 1375561537
cpu0_DTLB TOTAL     ACCESS:  327340734  HIT:  326589723  MISS:     751011
cpu0_DTLB LOAD      ACCESS:  252915942  HIT:  252337851  MISS:     578091
cpu0_DTLB RFO       ACCESS:   74424792  HIT:   74251872  MISS:     172920
cpu0_DTLB PREFETCH  ACCESS:          0  HIT:          0  MISS:          0
cpu0_DTLB WRITEBACK ACCESS:          0  HIT:          0  MISS:          0
cpu0_DTLB TRANSLATION ACCESS:          0  HIT:          0  MISS:          0
cpu0_DTLB PREFETCH  REQUESTED:          0  ISSUED:          0  USEFUL:          0  USELESS:          0
cpu0_DTLB AVERAGE MISS LATENCY: 27.4185 cycles
cpu0_ITLB TOTAL     ACCESS:   48022723  HIT:   48022307  MISS:        416
cpu0_ITLB LOAD      ACCESS:   48022723  HIT:   48022307  MISS:        416
cpu0_ITLB RFO       ACCESS:          0  HIT:          0  MISS:          0
cpu0_ITLB PREFETCH  ACCESS:          0  HIT:          0  MISS:          0
cpu0_ITLB WRITEBACK ACCESS:          0  HIT:          0  MISS:          0
cpu0_ITLB TRANSLATION ACCESS:          0  HIT:          0  MISS:          0
cpu0_ITLB PREFETCH  REQUESTED:          0  ISSUED:          0  USEFUL:          0  USELESS:          0
cpu0_ITLB AVERAGE MISS LATENCY: 183.281 cycles
cpu0_L1I TOTAL     ACCESS:   62644481  HIT:   62491052  MISS:     153429
cpu0_L1I LOAD      ACCESS:   62644481  HIT:   62491052  MISS:     153429
cpu0_L1I RFO       ACCESS:          0  HIT:          0  MISS:          0
cpu0_L1I PREFETCH  ACCESS:          0  HIT:          0  MISS:          0
cpu0_L1I WRITEBACK ACCESS:          0  HIT:          0  MISS:          0
cpu0_L1I TRANSLATION ACCESS:          0  HIT:          0  MISS:          0
cpu0_L1I PREFETCH  REQUESTED:          0  ISSUED:          0  USEFUL:          0  USELESS:          0
cpu0_L1I AVERAGE MISS LATENCY: 37.675 cycles
cpu0_STLB TOTAL     ACCESS:     751427  HIT:     656237  MISS:      95190
cpu0_STLB LOAD      ACCESS:     578507  HIT:     506716  MISS:      71791
cpu0_STLB RFO       ACCESS:     172920  HIT:     149521  MISS:      23399
cpu0_STLB PREFETCH  ACCESS:          0  HIT:          0  MISS:          0
cpu0_STLB WRITEBACK ACCESS:          0  HIT:          0  MISS:          0
cpu0_STLB TRANSLATION ACCESS:          0  HIT:          0  MISS:          0
cpu0_STLB PREFETCH  REQUESTED:          0  ISSUED:          0  USEFUL:          0  USELESS:          0
cpu0_STLB AVERAGE MISS LATENCY: 145.472 cycles
cpu0_L1D TOTAL     ACCESS:  337136240  HIT:  326247759  MISS:   10888481
cpu0_L1D LOAD      ACCESS:  221023934  HIT:  212695256  MISS:    8328678
cpu0_L1D RFO       ACCESS:  116026715  HIT:  113475695  MISS:    2551020
cpu0_L1D PREFETCH  ACCESS:          0  HIT:          0  MISS:          0
cpu0_L1D WRITEBACK ACCESS:          0  HIT:          0  MISS:          0
cpu0_L1D TRANSLATION ACCESS:      85591  HIT:      76808  MISS:       8783
cpu0_L1D PREFETCH  REQUESTED:          0  ISSUED:          0  USEFUL:          0  USELESS:          0
cpu0_L1D AVERAGE MISS LATENCY: 266.405 cycles
cpu0_L2C TOTAL     ACCESS:   15736503  HIT:    8171780  MISS:    7564723
cpu0_L2C LOAD      ACCESS:    8481980  HIT:    2710813  MISS:    5771167
cpu0_L2C RFO       ACCESS:    2547030  HIT:     758413  MISS:    1788617
cpu0_L2C PREFETCH  ACCESS:          0  HIT:          0  MISS:          0
cpu0_L2C WRITEBACK ACCESS:    4698710  HIT:    4694829  MISS:       3881
cpu0_L2C TRANSLATION ACCESS:       8783  HIT:       7725  MISS:       1058
cpu0_L2C PREFETCH  REQUESTED:          0  ISSUED:          0  USEFUL:          0  USELESS:          0
cpu0_L2C AVERAGE MISS LATENCY: 368.118 cycles
LLC TOTAL     ACCESS:   11170081  HIT:    4274472  MISS:    6895609
LLC LOAD      ACCESS:    5771160  HIT:     405875  MISS:    5365285
LLC RFO       ACCESS:    1788614  HIT:     268807  MISS:    1519807
LLC PREFETCH  ACCESS:          0  HIT:          0  MISS:          0
LLC WRITEBACK ACCESS:    3609249  HIT:    3599205  MISS:      10044
LLC TRANSLATION ACCESS:       1058  HIT:        585  MISS:        473
LLC PREFETCH  REQUESTED:          0  ISSUED:          0  USEFUL:          0  USELESS:          0
LLC AVERAGE MISS LATENCY: 380.812 cycles
~~~~~~~~~~Reuse Distance Profiler output~~~~~~~~~~
0	72820592	10541840
1	31000224	12590368
2	28955024	17956784
3	26800624	19562432
4	25416448	19353216
5	23754928	18392960
6	24635120	19598208
7	19401008	15288480
8	16681024	13223424
9	10444480	8580928
10	8842992	7174640
11	8069536	6888912
12	7309632	6142416
13	5498464	4559440
14	5612528	4512384
15	5462320	4484272
16	6464288	5768512
17	4255760	3614176
18	3382240	2731856
19	2579808	2174064
20	2571152	2187472
21	3538480	2839904
22	3678736	2787856
23	3155872	2272080
24	2868096	2091920
25	2788672	2049088
26	4353280	3032992
27	2937920	1938064
28	2924880	2211952
29	3278672	2347696
30	2861984	1919856
31	2578864	1340960
32	2363968	1624448
33	5021408	3570736
34	2693776	1602256
35	3535264	2628544
36	3408800	2067664
37	2470384	1768112
38	1993344	1253552
39	2824208	1935232
40	2860400	1579936
41	4890976	3381024
42	3266384	2038448
43	3041552	1945328
44	3009920	1956736
45	1640320	865344
46	2888832	1120400
47	1542912	802368
48	904432	540512
49	662320	318752
50	934992	473424
51	1121440	709680
52	709248	473408
53	460080	368960
54	821712	604960
55	864176	794432
56	577376	522000
57	475824	422528
58	597280	528480
59	849984	756512
60	2310384	2001808
61	655984	557600
62	1508592	1284896
63	697072	548784
64	1333968	805856
66	1630000	808656
68	2559872	1004672
70	3479888	829008
72	1365232	633504
74	986928	630144
76	3303856	2765824
78	1904800	1233232
80	5293040	4398640
82	1667296	1065072
84	947760	456112
86	755392	367760
88	568352	271520
90	1062976	801008
92	2355856	1698048
94	1015984	811984
96	1522672	1115200
98	389120	288672
100	166240	109920
102	536352	171808
104	231616	155184
106	265888	164288
108	261776	154576
110	249520	191744
112	181376	127056
114	218528	160944
116	277968	240080
118	250960	207840
120	249648	220496
122	269296	221120
124	287840	241472
126	230576	192656
128	525408	417040
132	589312	511328
136	716736	613008
140	645024	503232
144	400592	310464
148	251200	183744
152	379808	319264
156	559840	485088
160	657632	478096
164	1125008	524480
168	1122016	435840
172	455360	218208
176	343264	237120
180	508320	362464
184	350704	285376
188	389056	372896
192	423280	390032
196	439376	361008
200	729328	264224
204	611616	249072
208	326720	296928
212	392240	366464
216	300896	275632
220	289648	242864
224	292080	217040
228	313072	182096
232	185824	104256
236	138864	73952
240	264864	83504
244	606880	116560
248	645104	106464
252	214608	58720
256	113888	88928
264	132672	117040
272	136432	118256
280	172512	144928
288	124992	110384
296	108848	94976
304	123552	111024
312	133712	122064
320	156912	147984
328	177536	166112
336	222352	200896
344	181264	163280
352	192720	163840
360	156944	147600
368	144544	127344
376	224240	164880
384	140160	119936
392	103952	101184
400	119664	115952
408	138000	126272
416	108336	101456
424	115600	104416
432	132096	103696
440	212304	114848
448	407056	186192
456	802224	274304
464	469472	156048
472	200992	71888
480	109232	59968
488	103904	79472
496	85360	57248
504	80224	69968
512	140160	112208
528	104128	88528
544	136272	121872
560	92880	67952
576	72144	54112
592	72704	59264
608	99616	94480
624	67328	63504
640	49872	49536
656	47584	41248
672	40480	40080
688	71856	71616
704	99376	92528
720	100480	95568
736	97104	90448
752	49168	35088
768	46336	28304
784	63472	33488
800	90288	56736
816	61200	43248
832	60064	41184
848	51840	43344
864	46400	39376
880	50096	40480
896	47552	44208
912	58144	53968
928	79968	72496
944	107728	94032
960	127008	101904
976	86976	80368
992	83760	83312
1008	64064	57840
1024	62464	55536
1056	159072	158256
1088	58016	56736
1120	91568	67152
1152	138080	64896
1184	125008	41920
1216	77424	51664
1248	96640	75824
1280	58240	49088
1312	60016	48816
1344	38864	19280
1376	65840	40912
1408	79376	41248
1440	45472	26864
1472	51568	42576
1504	69632	69200
1536	41408	32544
1568	40816	35216
1600	35344	16032
1632	56752	36624
1664	45808	36912
1696	43424	43040
1728	59152	44096
1760	37584	31504
1792	38064	28624
1824	88688	80800
1856	68096	62096
1888	62720	56352
1920	104224	89456
1952	78096	59584
1984	65856	44640
2016	58976	55424
2048	104944	78256
2112	80832	71696
2176	65328	63904
2240	101552	98112
2304	69408	67632
2368	123056	115200
2432	126864	114864
2496	88000	86304
2560	139440	133056
2624	92512	73600
2688	261456	242848
2752	122368	108048
2816	86608	79360
2880	108656	95824
2944	129600	110032
3008	124512	109072
3072	122000	121504
3136	131056	129920
3200	104848	98896
3264	59056	58512
3328	45040	36224
3392	73728	72784
3456	70992	58960
3520	63856	55712
3584	57440	43504
3648	60032	39232
3712	77248	51808
3776	56752	50656
3840	49024	48320
3904	40752	40000
3968	53888	53392
4032	49408	42544
4096	152848	111664
4224	376896	208112
4352	466496	337376
4480	128960	63664
4608	99424	55936
4736	92416	46592
4864	95184	53296
4992	85312	29536
5120	104864	47120
5248	104752	42688
5376	119664	62400
5504	103728	49152
5632	62016	22960
5760	74080	39936
5888	54304	14224
6016	64608	21520
6144	58224	17008
6272	71552	40032
6400	61360	30640
6528	43392	12368
6656	41856	7824
6784	41680	7248
6912	43088	12608
7040	50784	19968
7168	66640	12560
7296	51968	19824
7424	36928	15344
7552	28576	9552
7680	34672	16640
7808	55904	14752
7936	71808	17232
8064	72224	25568
8192	137520	63248
8448	173840	53328
8704	229776	95136
8960	190256	105648
9216	207280	151360
9472	141280	74880
9728	90336	35584
9984	103360	57104
10240	78896	30256
10496	124160	81232
10752	131680	43248
11008	208960	77120
11264	202144	86464
11520	114624	51600
11776	81392	53056
12032	90192	53440
12288	57904	43840
12544	50704	42832
12800	39792	32400
13056	30688	19168
13312	41680	21920
13568	31584	14128
13824	29952	20992
14080	26144	18480
14336	22096	14464
14592	18176	11456
14848	17456	10352
15104	25024	9680
15360	15392	8864
15616	16224	9872
15872	17120	10624
16128	62304	48016
16384	42832	28704
16896	100624	77312
17408	219856	179216
17920	164160	76048
18432	374720	86464
18944	694128	131344
19456	352240	45776
19968	307296	36032
20480	385488	32640
20992	105136	45696
21504	1864240	1738864
22016	162096	149936
22528	39104	25024
23040	24288	15904
23552	40784	35760
24064	26960	22816
24576	13536	9904
25088	12288	8800
25600	14336	10800
26112	22512	18608
26624	17968	14208
27136	15872	12608
27648	14688	11136
28160	13136	9664
28672	29184	25664
29184	133360	129472
29696	169360	166112
30208	209456	206688
30720	21488	17856
31232	10368	6720
31744	33584	30224
32256	10144	6672
32768	145520	138864
33792	56816	49664
34816	19584	13008
35840	28224	21456
36864	92752	81552
37888	20928	11616
38912	17744	11744
39936	15728	10256
40960	16976	12128
41984	15728	9424
43008	27520	20432
44032	34112	26144
45056	40032	32912
46080	29520	25232
47104	26896	22832
48128	18016	14576
49152	13520	9552
50176	9120	5328
51200	22432	18784
52224	60912	57360
53248	9520	5488
54272	9408	5264
55296	8912	4576
56320	9680	5312
57344	9056	4960
58368	9056	5360
59392	9936	5424
60416	9408	4944
61440	14592	9856
62464	17680	13344
63488	25952	21264
64512	103760	98928
65536	22752	13792
67584	18256	10080
69632	46448	37488
71680	17952	11168
73728	16864	10000
75776	30336	23952
77824	64320	58800
79872	17312	13104
81920	12400	7696
83968	12240	7648
86016	11408	7360
88064	14592	7552
90112	18240	7104
92160	17424	11424
94208	21264	17824
96256	10784	7808
98304	12464	9344
100352	12864	9888
102400	11456	9136
104448	9600	6704
106496	9472	6960
108544	8096	5552
110592	7472	4464
112640	9504	4128
114688	10976	3552
116736	14752	5008
118784	18432	6144
120832	14048	6272
122880	12576	7104
124928	11136	8512
126976	10816	10272
129024	30016	29344
131072	22192	21120
135168	12528	11664
139264	12768	11888
143360	10576	9760
147456	11024	9856
151552	8112	7648
155648	9072	8016
159744	8240	7952
163840	8560	8240
167936	7504	7088
172032	7952	6832
176128	8144	7488
180224	6464	6096
184320	7872	7312
188416	9424	8944
192512	9424	8752
196608	12560	8416
200704	23184	8480
204800	15664	7056
208896	5088	4912
212992	5104	4784
217088	6912	6432
221184	10544	9104
225280	14080	13696
229376	27184	26864
233472	13968	13792
237568	7072	6880
241664	6688	6384
245760	4000	3616
249856	4144	3856
253952	4384	3872
258048	3952	3408
262144	10208	8768
270336	9808	8224
278528	8720	7280
286720	9648	8032
294912	8848	7504
303104	9456	8368
311296	9776	8624
319488	8944	7840
327680	9872	8224
335872	9120	7808
344064	8832	7760
352256	26576	25584
360448	21648	21328
368640	4720	4208
376832	5232	4496
385024	7296	5984
393216	10384	7232
401408	16464	10128
409600	25616	16416
417792	32160	20128
425984	28848	17984
434176	22880	13584
442368	14080	8256
450560	9184	3872
458752	4160	2816
466944	2448	2352
475136	2784	2752
483328	3344	3264
491520	2896	2672
499712	2992	2864
507904	2864	2832
516096	3120	2992
524288	6304	3680
540672	12800	5984
557056	18256	5392
573440	39200	8416
589824	48832	17776
606208	30096	18304
622592	8544	5440
638976	13504	6032
655360	17872	6656
671744	18208	5680
688128	13520	5936
704512	8432	5504
720896	11728	6656
737280	13728	5376
753664	24784	5856
770048	41296	5520
786432	59008	7920
802816	56096	7552
819200	38464	7040
835584	11952	6320
851968	7824	6864
868352	6784	6752
884736	7344	6816
901120	6832	6768
917504	32848	32752
933888	8112	8080
950272	6592	6560
966656	7168	7136
983040	7216	7168
999424	8272	8256
1015808	8224	8192
1032192	8016	8000
1048576	28368	28304
1081344	13232	13184
1114112	12944	12864
1146880	25488	25456
1179648	12928	12864
1212416	20416	20352
1245184	20640	20528
1277952	13808	13680
1310720	14464	14368
1343488	14336	14288
1376256	13136	13056
1409024	14464	14400
1441792	19728	19312
1474560	20272	20160
1507328	20512	20448
1540096	50320	50224
1572864	100208	100128
1605632	34560	34496
1638400	37280	37248
1671168	36416	36352
1703936	35376	35360
1736704	37488	37392
1769472	26720	26656
1802240	37472	37456
1835008	39168	39136
1867776	45584	45536
1900544	39952	39920
1933312	28768	28368
1966080	26272	26016
1998848	25344	25008
2031616	26576	26112
2064384	24960	24704
2097152	51632	51136
2162688	47584	47088
2228224	49728	49168
2293760	46032	44784
2359296	33584	33024
2424832	22512	21936
2490368	21520	20768
2555904	20448	19824
2621440	23264	22688
2686976	20432	20048
2752512	13968	13440
2818048	28592	28032
2883584	14224	13232
2949120	10640	8784
3014656	9424	7760
3080192	10416	9200
3145728	10528	9024
3211264	9904	8704
3276800	10288	8848
3342336	12464	11152
3407872	12784	11456
3473408	13232	11168
3538944	13088	11376
3604480	12672	11344
3670016	12560	11280
3735552	13184	11040
3801088	12912	10656
3866624	13504	11088
3932160	11152	9312
3997696	10144	9280
4063232	9360	8528
4128768	8032	7264
4194304	30768	27264
4325376	18416	17120
4456448	17840	16496
4587520	19840	17440
4718592	19696	17232
4849664	30672	29216
4980736	31376	29280
5111808	29552	29360
5242880	32176	31744
5373952	29920	29792
5505024	21984	21744
5636096	28832	27440
5767168	47040	34496
5898240	34400	20880
6029312	30976	17808
6160384	23008	16448
6291456	36272	34384
6422528	75952	73424
6553600	156816	152640
6684672	55280	53376
6815744	37632	35808
6946816	34432	32288
7077888	27328	25216
7208960	51600	48336
7340032	20480	18448
7471104	20656	17824
7602176	17888	13888
7733248	15680	12192
7864320	24128	20720
7995392	24256	21008
8126464	17296	15232
8257536	14448	12448
8388608	23360	19696
8650752	25232	20704
8912896	23200	19056
9175040	22224	18032
9437184	20720	16240
9699328	20880	20672
9961472	15600	15584
10223616	12048	11184
10485760	22784	22496
10747904	8928	8848
11010048	9520	8512
11272192	7936	7856
11534336	9472	9424
11796480	11104	10016
12058624	8480	8432
12320768	8128	7792
12582912	16080	15040
12845056	16384	16384
13107200	7408	7360
13369344	12128	10976
13631488	31952	31920
13893632	15472	14816
14155776	9760	9328
14417920	17552	17520
14680064	10000	8608
14942208	8080	7376
15204352	7056	6256
15466496	7792	6400
15728640	9952	9248
15990784	11440	10720
16252928	9168	7568
16515072	8864	8368
16777216	19904	17520
17301504	18992	17728
17825792	20112	17904
18350080	22944	20528
18874368	49856	48544
19398656	31744	29552
19922944	28784	26688
20447232	19536	19456
20971520	18496	17552
21495808	20672	18784
22020096	18384	13184
22544384	14240	8624
23068672	16624	10704
23592960	17680	12544
24117248	14160	9712
24641536	15648	11632
25165824	10928	9888
25690112	12816	12656
26214400	16976	15856
26738688	12048	10592
27262976	9872	9600
27787264	11120	9936
28311552	13888	12784
28835840	18016	17856
29360128	16736	15392
29884416	12992	11584
30408704	13504	13296
30932992	14304	12928
31457280	12608	11216
31981568	13456	12816
32505856	12736	11280
33030144	7728	6384
33554432	50608	46496
34603008	32352	27744
35651584	68080	40320
36700160	62736	25696
37748736	39152	6304
38797312	43072	20528
39845888	9280	8144
40894464	11616	10128
41943040	30688	29168
42991616	14432	13376
44040192	7520	5680
45088768	6752	5664
46137344	8928	7968
47185920	11584	9808
48234496	4688	3648
49283072	4496	3536
50331648	4480	2544
51380224	4624	3584
52428800	3712	2544
53477376	5936	4000
54525952	28592	27504
55574528	17744	16592
56623104	4912	2816
57671680	12640	6112
58720256	22528	12528
59768832	6048	3312
60817408	3952	2832
61865984	4064	2768
62914560	5024	3024
63963136	4624	3376
65011712	4880	2960
66060288	3024	2832
67108864	6592	6224
69206016	10640	10080
71303168	20304	19952
73400320	17168	16560
75497472	37120	36768
77594624	32528	32032
79691776	22144	21584
81788928	15328	13808
83886080	5648	4304
85983232	4256	2656
88080384	4672	3728
90177536	4816	3872
92274688	4608	3808
94371840	5344	4432
96468992	4032	2944
98566144	4592	3776
100663296	4832	3680
102760448	5056	3808
104857600	5232	4032
106954752	5968	4656
109051904	95136	94096
111149056	2592	1520
113246208	2112	1088
115343360	2112	1184
117440512	2592	1312
119537664	2144	1296
121634816	3984	2720
123731968	3936	2896
125829120	4304	3056
127926272	6016	4912
130023424	4752	3760
132120576	17536	16576
134217728	126480	124720
138412032	25904	24784
142606336	56720	55376
146800640	32768	31440
150994944	19760	18416
155189248	6784	5408
159383552	5600	4560
163577856	13504	12384
167772160	18208	17392
171966464	17600	16832
176160768	18784	18400
180355072	27776	27296
184549376	7664	6912
188743680	27920	27104
192937984	9312	8896
197132288	8704	8096
201326592	8960	7824
205520896	2496	1248
209715200	2624	1712
213909504	29536	28608
218103808	1648	640
222298112	1216	160
226492416	992	0
230686720	768	0
234881024	688	0
239075328	592	0
243269632	768	16
247463936	4096	3792
251658240	5552	5552
255852544	3888	3632
260046848	144	0
264241152	64	0
268435456	800	352
276824064	13984	13648
285212672	13664	13648
293601280	0	0
301989888	0	0
310378496	0	0
318767104	0	0
327155712	48	0
335544320	0	0
343932928	48	0
352321536	16	0
360710144	16	0
369098752	0	0
377487360	0	0
385875968	0	0
394264576	0	0
402653184	0	0
411041792	32	0
419430400	16	0
427819008	0	0
436207616	0	0
444596224	0	0
452984832	0	0
461373440	0	0
469762048	0	0
478150656	0	0
486539264	0	0
494927872	0	0
503316480	0	0
511705088	0	0
520093696	0	0
528482304	0	0
536870912	0	0
553648128	0	0
570425344	0	0
587202560	0	0
603979776	0	0
620756992	0	0
637534208	0	0
654311424	0	0
671088640	0	0
687865856	0	0
704643072	0	0
721420288	0	0
738197504	0	0
754974720	0	0
771751936	0	0
788529152	0	0
805306368	0	0
822083584	0	0
838860800	0	0
855638016	0	0
872415232	0	0
889192448	0	0
905969664	0	0
922746880	0	0
939524096	0	0
956301312	0	0
973078528	0	0
989855744	0	0
1006632960	0	0
1023410176	0	0
1040187392	0	0
1056964608	0	0
1073741824	0	0
1107296256	0	0
1140850688	0	0
1174405120	0	0
1207959552	0	0
1241513984	0	0
1275068416	0	0
1308622848	0	0
1342177280	0	0
1375731712	0	0
1409286144	0	0
1442840576	0	0
1476395008	0	0
1509949440	0	0
1543503872	0	0
1577058304	0	0
1610612736	0	0
1644167168	0	0
1677721600	0	0
1711276032	0	0
1744830464	0	0
1778384896	0	0
1811939328	0	0
1845493760	0	0
1879048192	0	0
1912602624	0	0
1946157056	0	0
1979711488	0	0
2013265920	0	0
2046820352	0	0
2080374784	0	0
2113929216	0	0
2147483648	0	0
2214592512	0	0
2281701376	0	0
2348810240	0	0
2415919104	0	0
2483027968	0	0
2550136832	0	0
2617245696	0	0
2684354560	0	0
2751463424	0	0
2818572288	0	0
2885681152	0	0
2952790016	0	0
3019898880	0	0
3087007744	0	0
3154116608	0	0
3221225472	0	0
3288334336	0	0
3355443200	0	0
3422552064	0	0
3489660928	0	0
3556769792	0	0
3623878656	0	0
3690987520	0	0
3758096384	0	0
3825205248	0	0
3892314112	0	0
3959422976	0	0
4026531840	0	0
4093640704	0	0
4160749568	0	0
4227858432	0	0
~~~~~~~~~~Reuse Distance Profiler output end~~~~~~~~~~

DRAM Statistics
 CHANNEL 0
 RQ ROW_BUFFER_HIT:     409671  ROW_BUFFER_MISS:    6474191
 DBUS AVG_CONGESTED_CYCLE:    3.96477
 WQ ROW_BUFFER_HIT:     364342  ROW_BUFFER_MISS:    2808585  FULL:          0


CPU 0 Branch Prediction Accuracy: 97.1689% MPKI: 2.27366 Average ROB Occupancy at Mispredict: 210.66
Branch type MPKI
BRANCH_DIRECT_JUMP: 0.000616667
BRANCH_INDIRECT: 0.000215333
BRANCH_CONDITIONAL: 2.27145
BRANCH_DIRECT_CALL: 0.000934
BRANCH_INDIRECT_CALL: 2.6e-05
BRANCH_RETURN: 0.000420667

