
*** ChampSim Multicore Out-of-Order Simulator ***

Warmup Instructions: 500000000
Simulation Instructions: 1500000000
Number of CPUs: 1
Off-chip DRAM Size: 4 GiB Channels: 1 Width: 64-bit Data Rate: 3200 MT/s

VirtualMemory physical capacity: 8588881920 num_ppages: 2096895
VirtualMemory page size: 4096 log2_page_size: 12

CPU 0 runs traces/482.sphinx3-417B.champsimtrace.xz
CPU 0 Bimodal branch predictor
Basic BTB sets: 1024 ways: 8 indirect buffer size: 4096 RAS size: 64
Initializing LRU.
Initializing LRU.
Initializing LRU.
Initializing LRU.
Initializing rdLRU.
Initializing LRU.
Initializing LRU.
Heartbeat CPU 0 instructions: 10000003 cycles: 2634155 heartbeat IPC: 3.79628 cumulative IPC: 3.79628 (Simulation time: 0 hr 0 min 35 sec) 
Heartbeat CPU 0 instructions: 20000003 cycles: 5245346 heartbeat IPC: 3.82967 cumulative IPC: 3.8129 (Simulation time: 0 hr 1 min 9 sec) 
Heartbeat CPU 0 instructions: 30000001 cycles: 7847856 heartbeat IPC: 3.84244 cumulative IPC: 3.8227 (Simulation time: 0 hr 1 min 42 sec) 
Heartbeat CPU 0 instructions: 40000001 cycles: 10440367 heartbeat IPC: 3.85726 cumulative IPC: 3.83128 (Simulation time: 0 hr 2 min 16 sec) 
Heartbeat CPU 0 instructions: 50000003 cycles: 13038473 heartbeat IPC: 3.84896 cumulative IPC: 3.83481 (Simulation time: 0 hr 2 min 49 sec) 
Heartbeat CPU 0 instructions: 60000003 cycles: 15634228 heartbeat IPC: 3.85244 cumulative IPC: 3.83773 (Simulation time: 0 hr 3 min 23 sec) 
Heartbeat CPU 0 instructions: 70000003 cycles: 18279308 heartbeat IPC: 3.7806 cumulative IPC: 3.82947 (Simulation time: 0 hr 3 min 57 sec) 
Heartbeat CPU 0 instructions: 80000001 cycles: 20901734 heartbeat IPC: 3.81326 cumulative IPC: 3.82743 (Simulation time: 0 hr 4 min 32 sec) 
Heartbeat CPU 0 instructions: 90000003 cycles: 23535805 heartbeat IPC: 3.79641 cumulative IPC: 3.82396 (Simulation time: 0 hr 5 min 8 sec) 
Heartbeat CPU 0 instructions: 100000002 cycles: 26138015 heartbeat IPC: 3.84289 cumulative IPC: 3.82585 (Simulation time: 0 hr 5 min 43 sec) 
Heartbeat CPU 0 instructions: 110000000 cycles: 28771577 heartbeat IPC: 3.79714 cumulative IPC: 3.82322 (Simulation time: 0 hr 6 min 19 sec) 
Heartbeat CPU 0 instructions: 120000001 cycles: 31397606 heartbeat IPC: 3.80803 cumulative IPC: 3.82195 (Simulation time: 0 hr 6 min 55 sec) 
Heartbeat CPU 0 instructions: 130000000 cycles: 34041859 heartbeat IPC: 3.78179 cumulative IPC: 3.81883 (Simulation time: 0 hr 7 min 30 sec) 
Heartbeat CPU 0 instructions: 140000000 cycles: 36656537 heartbeat IPC: 3.82456 cumulative IPC: 3.81924 (Simulation time: 0 hr 8 min 5 sec) 
Heartbeat CPU 0 instructions: 150000000 cycles: 39257878 heartbeat IPC: 3.84417 cumulative IPC: 3.82089 (Simulation time: 0 hr 8 min 40 sec) 
Heartbeat CPU 0 instructions: 160000001 cycles: 41885449 heartbeat IPC: 3.8058 cumulative IPC: 3.81994 (Simulation time: 0 hr 9 min 24 sec) 
Heartbeat CPU 0 instructions: 170000003 cycles: 44505988 heartbeat IPC: 3.81601 cumulative IPC: 3.81971 (Simulation time: 0 hr 10 min 17 sec) 
Heartbeat CPU 0 instructions: 180000003 cycles: 47126990 heartbeat IPC: 3.81533 cumulative IPC: 3.81947 (Simulation time: 0 hr 10 min 52 sec) 
Heartbeat CPU 0 instructions: 190000003 cycles: 49740475 heartbeat IPC: 3.82631 cumulative IPC: 3.81983 (Simulation time: 0 hr 11 min 27 sec) 
Heartbeat CPU 0 instructions: 200000002 cycles: 52374755 heartbeat IPC: 3.7961 cumulative IPC: 3.81863 (Simulation time: 0 hr 12 min 2 sec) 
Heartbeat CPU 0 instructions: 210000002 cycles: 54984147 heartbeat IPC: 3.83231 cumulative IPC: 3.81928 (Simulation time: 0 hr 12 min 37 sec) 
Heartbeat CPU 0 instructions: 220000000 cycles: 57589847 heartbeat IPC: 3.83774 cumulative IPC: 3.82012 (Simulation time: 0 hr 13 min 10 sec) 
Heartbeat CPU 0 instructions: 230000004 cycles: 60170884 heartbeat IPC: 3.87441 cumulative IPC: 3.82245 (Simulation time: 0 hr 13 min 44 sec) 
Heartbeat CPU 0 instructions: 240000003 cycles: 62771103 heartbeat IPC: 3.84583 cumulative IPC: 3.82342 (Simulation time: 0 hr 14 min 18 sec) 
Heartbeat CPU 0 instructions: 250000001 cycles: 65404815 heartbeat IPC: 3.79692 cumulative IPC: 3.82235 (Simulation time: 0 hr 15 min 10 sec) 
Heartbeat CPU 0 instructions: 260000000 cycles: 68021474 heartbeat IPC: 3.82167 cumulative IPC: 3.82232 (Simulation time: 0 hr 15 min 55 sec) 
Heartbeat CPU 0 instructions: 270000002 cycles: 70608411 heartbeat IPC: 3.86558 cumulative IPC: 3.82391 (Simulation time: 0 hr 16 min 30 sec) 
Heartbeat CPU 0 instructions: 280000002 cycles: 73198872 heartbeat IPC: 3.86032 cumulative IPC: 3.8252 (Simulation time: 0 hr 17 min 4 sec) 
Heartbeat CPU 0 instructions: 290000001 cycles: 75812720 heartbeat IPC: 3.82578 cumulative IPC: 3.82522 (Simulation time: 0 hr 17 min 51 sec) 
Heartbeat CPU 0 instructions: 300000002 cycles: 78395598 heartbeat IPC: 3.87165 cumulative IPC: 3.82675 (Simulation time: 0 hr 18 min 39 sec) 
Heartbeat CPU 0 instructions: 310000001 cycles: 81027944 heartbeat IPC: 3.79889 cumulative IPC: 3.82584 (Simulation time: 0 hr 19 min 27 sec) 
Heartbeat CPU 0 instructions: 320000000 cycles: 83639823 heartbeat IPC: 3.82866 cumulative IPC: 3.82593 (Simulation time: 0 hr 20 min 28 sec) 
Heartbeat CPU 0 instructions: 330000002 cycles: 86264231 heartbeat IPC: 3.81038 cumulative IPC: 3.82546 (Simulation time: 0 hr 21 min 26 sec) 
Heartbeat CPU 0 instructions: 340000000 cycles: 88863003 heartbeat IPC: 3.84797 cumulative IPC: 3.82611 (Simulation time: 0 hr 22 min 9 sec) 
Heartbeat CPU 0 instructions: 350000003 cycles: 91465091 heartbeat IPC: 3.84307 cumulative IPC: 3.8266 (Simulation time: 0 hr 22 min 44 sec) 
Heartbeat CPU 0 instructions: 360000001 cycles: 94081972 heartbeat IPC: 3.82134 cumulative IPC: 3.82645 (Simulation time: 0 hr 23 min 19 sec) 
Heartbeat CPU 0 instructions: 370000004 cycles: 96724571 heartbeat IPC: 3.78415 cumulative IPC: 3.82529 (Simulation time: 0 hr 23 min 55 sec) 
Heartbeat CPU 0 instructions: 380000002 cycles: 99356843 heartbeat IPC: 3.799 cumulative IPC: 3.8246 (Simulation time: 0 hr 24 min 36 sec) 
Heartbeat CPU 0 instructions: 390000002 cycles: 101978878 heartbeat IPC: 3.81383 cumulative IPC: 3.82432 (Simulation time: 0 hr 25 min 11 sec) 
Heartbeat CPU 0 instructions: 400000001 cycles: 104590856 heartbeat IPC: 3.82852 cumulative IPC: 3.82443 (Simulation time: 0 hr 25 min 45 sec) 
Heartbeat CPU 0 instructions: 410000000 cycles: 107225083 heartbeat IPC: 3.79618 cumulative IPC: 3.82373 (Simulation time: 0 hr 26 min 20 sec) 
Heartbeat CPU 0 instructions: 420000000 cycles: 109852714 heartbeat IPC: 3.80571 cumulative IPC: 3.8233 (Simulation time: 0 hr 26 min 57 sec) 
Heartbeat CPU 0 instructions: 430000003 cycles: 112473372 heartbeat IPC: 3.81584 cumulative IPC: 3.82313 (Simulation time: 0 hr 27 min 31 sec) 
Heartbeat CPU 0 instructions: 440000000 cycles: 115126420 heartbeat IPC: 3.76925 cumulative IPC: 3.82189 (Simulation time: 0 hr 28 min 11 sec) 
Heartbeat CPU 0 instructions: 450000003 cycles: 117770277 heartbeat IPC: 3.78235 cumulative IPC: 3.821 (Simulation time: 0 hr 29 min 5 sec) 
Heartbeat CPU 0 instructions: 460000004 cycles: 120392139 heartbeat IPC: 3.81408 cumulative IPC: 3.82085 (Simulation time: 0 hr 30 min 6 sec) 
Heartbeat CPU 0 instructions: 470000003 cycles: 123042783 heartbeat IPC: 3.77267 cumulative IPC: 3.81981 (Simulation time: 0 hr 31 min 10 sec) 
Heartbeat CPU 0 instructions: 480000004 cycles: 125678950 heartbeat IPC: 3.79339 cumulative IPC: 3.81926 (Simulation time: 0 hr 32 min 10 sec) 
Heartbeat CPU 0 instructions: 490000000 cycles: 128313841 heartbeat IPC: 3.79522 cumulative IPC: 3.81876 (Simulation time: 0 hr 32 min 47 sec) 
Heartbeat CPU 0 instructions: 500000002 cycles: 130942925 heartbeat IPC: 3.80361 cumulative IPC: 3.81846 (Simulation time: 0 hr 33 min 25 sec) 

Warmup complete CPU 0 instructions: 500000002 cycles: 130942925 (Simulation time: 0 hr 33 min 25 sec) 

Heartbeat CPU 0 instructions: 510000001 cycles: 146615058 heartbeat IPC: 0.638075 cumulative IPC: 0.638075 (Simulation time: 0 hr 34 min 51 sec) 
Heartbeat CPU 0 instructions: 520000000 cycles: 162874092 heartbeat IPC: 0.615043 cumulative IPC: 0.626347 (Simulation time: 0 hr 36 min 52 sec) 
Heartbeat CPU 0 instructions: 530000001 cycles: 179013680 heartbeat IPC: 0.619595 cumulative IPC: 0.62408 (Simulation time: 0 hr 38 min 29 sec) 
Heartbeat CPU 0 instructions: 540000003 cycles: 194446729 heartbeat IPC: 0.64796 cumulative IPC: 0.629884 (Simulation time: 0 hr 39 min 54 sec) 
Heartbeat CPU 0 instructions: 550000000 cycles: 211245868 heartbeat IPC: 0.595268 cumulative IPC: 0.622642 (Simulation time: 0 hr 41 min 21 sec) 
Heartbeat CPU 0 instructions: 560000003 cycles: 226056675 heartbeat IPC: 0.675183 cumulative IPC: 0.630824 (Simulation time: 0 hr 42 min 45 sec) 
Heartbeat CPU 0 instructions: 570000004 cycles: 237729872 heartbeat IPC: 0.856663 cumulative IPC: 0.655511 (Simulation time: 0 hr 43 min 58 sec) 
Heartbeat CPU 0 instructions: 580000003 cycles: 252467812 heartbeat IPC: 0.678521 cumulative IPC: 0.658301 (Simulation time: 0 hr 45 min 20 sec) 
Heartbeat CPU 0 instructions: 590000000 cycles: 266992612 heartbeat IPC: 0.688477 cumulative IPC: 0.661523 (Simulation time: 0 hr 47 min 30 sec) 
Heartbeat CPU 0 instructions: 600000002 cycles: 280991265 heartbeat IPC: 0.714355 cumulative IPC: 0.666452 (Simulation time: 0 hr 48 min 45 sec) 
Heartbeat CPU 0 instructions: 610000001 cycles: 294857654 heartbeat IPC: 0.721168 cumulative IPC: 0.671081 (Simulation time: 0 hr 50 min 0 sec) 
Heartbeat CPU 0 instructions: 620000002 cycles: 309316179 heartbeat IPC: 0.691634 cumulative IPC: 0.672747 (Simulation time: 0 hr 51 min 17 sec) 
Heartbeat CPU 0 instructions: 630000003 cycles: 323117989 heartbeat IPC: 0.724543 cumulative IPC: 0.676467 (Simulation time: 0 hr 52 min 31 sec) 
Heartbeat CPU 0 instructions: 640000000 cycles: 337012661 heartbeat IPC: 0.7197 cumulative IPC: 0.679382 (Simulation time: 0 hr 53 min 46 sec) 
Heartbeat CPU 0 instructions: 650000002 cycles: 351545922 heartbeat IPC: 0.688077 cumulative IPC: 0.679954 (Simulation time: 0 hr 55 min 3 sec) 
Heartbeat CPU 0 instructions: 660000003 cycles: 364394000 heartbeat IPC: 0.778327 cumulative IPC: 0.685368 (Simulation time: 0 hr 56 min 46 sec) 
Heartbeat CPU 0 instructions: 670000000 cycles: 377336232 heartbeat IPC: 0.772664 cumulative IPC: 0.689954 (Simulation time: 0 hr 58 min 10 sec) 
Heartbeat CPU 0 instructions: 680000001 cycles: 391687696 heartbeat IPC: 0.696793 cumulative IPC: 0.69033 (Simulation time: 0 hr 59 min 33 sec) 
Heartbeat CPU 0 instructions: 690000001 cycles: 405665593 heartbeat IPC: 0.715415 cumulative IPC: 0.691607 (Simulation time: 1 hr 0 min 55 sec) 
Heartbeat CPU 0 instructions: 700000000 cycles: 420624392 heartbeat IPC: 0.668503 cumulative IPC: 0.690414 (Simulation time: 1 hr 2 min 19 sec) 
Heartbeat CPU 0 instructions: 710000002 cycles: 436241209 heartbeat IPC: 0.640336 cumulative IPC: 0.687852 (Simulation time: 1 hr 3 min 43 sec) 
Heartbeat CPU 0 instructions: 720000000 cycles: 449792763 heartbeat IPC: 0.737923 cumulative IPC: 0.68998 (Simulation time: 1 hr 5 min 0 sec) 
Heartbeat CPU 0 instructions: 730000002 cycles: 464893199 heartbeat IPC: 0.662233 cumulative IPC: 0.688725 (Simulation time: 1 hr 6 min 21 sec) 
Heartbeat CPU 0 instructions: 740000000 cycles: 481212458 heartbeat IPC: 0.612773 cumulative IPC: 0.685187 (Simulation time: 1 hr 7 min 51 sec) 
Heartbeat CPU 0 instructions: 750000000 cycles: 497508715 heartbeat IPC: 0.613638 cumulative IPC: 0.682006 (Simulation time: 1 hr 9 min 53 sec) 
Heartbeat CPU 0 instructions: 760000002 cycles: 512161295 heartbeat IPC: 0.682474 cumulative IPC: 0.682024 (Simulation time: 1 hr 11 min 36 sec) 
Heartbeat CPU 0 instructions: 770000000 cycles: 525503176 heartbeat IPC: 0.749519 cumulative IPC: 0.684306 (Simulation time: 1 hr 12 min 58 sec) 
Heartbeat CPU 0 instructions: 780000003 cycles: 537965865 heartbeat IPC: 0.802395 cumulative IPC: 0.687922 (Simulation time: 1 hr 14 min 15 sec) 
Heartbeat CPU 0 instructions: 790000004 cycles: 550187503 heartbeat IPC: 0.818221 cumulative IPC: 0.69172 (Simulation time: 1 hr 15 min 32 sec) 
Heartbeat CPU 0 instructions: 800000001 cycles: 562910903 heartbeat IPC: 0.785953 cumulative IPC: 0.694496 (Simulation time: 1 hr 16 min 58 sec) 
Heartbeat CPU 0 instructions: 810000000 cycles: 576409304 heartbeat IPC: 0.740828 cumulative IPC: 0.6959 (Simulation time: 1 hr 19 min 16 sec) 
Heartbeat CPU 0 instructions: 820000001 cycles: 591110932 heartbeat IPC: 0.680197 cumulative IPC: 0.695398 (Simulation time: 1 hr 21 min 36 sec) 
Heartbeat CPU 0 instructions: 830000000 cycles: 605069529 heartbeat IPC: 0.716404 cumulative IPC: 0.696017 (Simulation time: 1 hr 24 min 0 sec) 
Heartbeat CPU 0 instructions: 840000002 cycles: 619338099 heartbeat IPC: 0.700841 cumulative IPC: 0.696158 (Simulation time: 1 hr 26 min 4 sec) 
Heartbeat CPU 0 instructions: 850000000 cycles: 634156487 heartbeat IPC: 0.674837 cumulative IPC: 0.69553 (Simulation time: 1 hr 28 min 28 sec) 
Heartbeat CPU 0 instructions: 860000000 cycles: 648951404 heartbeat IPC: 0.675908 cumulative IPC: 0.694969 (Simulation time: 1 hr 30 min 42 sec) 
Heartbeat CPU 0 instructions: 870000003 cycles: 662938122 heartbeat IPC: 0.714964 cumulative IPC: 0.695495 (Simulation time: 1 hr 32 min 20 sec) 
Heartbeat CPU 0 instructions: 880000004 cycles: 676580894 heartbeat IPC: 0.732989 cumulative IPC: 0.696432 (Simulation time: 1 hr 33 min 35 sec) 
Heartbeat CPU 0 instructions: 890000001 cycles: 690326629 heartbeat IPC: 0.727498 cumulative IPC: 0.697196 (Simulation time: 1 hr 34 min 51 sec) 
Heartbeat CPU 0 instructions: 900000003 cycles: 704786235 heartbeat IPC: 0.691582 cumulative IPC: 0.697054 (Simulation time: 1 hr 36 min 11 sec) 
Heartbeat CPU 0 instructions: 910000000 cycles: 719713377 heartbeat IPC: 0.66992 cumulative IPC: 0.696366 (Simulation time: 1 hr 37 min 32 sec) 
Heartbeat CPU 0 instructions: 920000004 cycles: 734131182 heartbeat IPC: 0.693587 cumulative IPC: 0.6963 (Simulation time: 1 hr 39 min 33 sec) 
Heartbeat CPU 0 instructions: 930000001 cycles: 747831540 heartbeat IPC: 0.729908 cumulative IPC: 0.697046 (Simulation time: 1 hr 41 min 25 sec) 
Heartbeat CPU 0 instructions: 940000000 cycles: 761256016 heartbeat IPC: 0.744908 cumulative IPC: 0.698066 (Simulation time: 1 hr 42 min 42 sec) 
Heartbeat CPU 0 instructions: 950000001 cycles: 774444531 heartbeat IPC: 0.758236 cumulative IPC: 0.699299 (Simulation time: 1 hr 43 min 58 sec) 
Heartbeat CPU 0 instructions: 960000001 cycles: 789386157 heartbeat IPC: 0.669271 cumulative IPC: 0.698618 (Simulation time: 1 hr 45 min 21 sec) 
Heartbeat CPU 0 instructions: 970000004 cycles: 804134829 heartbeat IPC: 0.678027 cumulative IPC: 0.698166 (Simulation time: 1 hr 47 min 11 sec) 
Heartbeat CPU 0 instructions: 980000004 cycles: 819272547 heartbeat IPC: 0.660602 cumulative IPC: 0.69734 (Simulation time: 1 hr 49 min 44 sec) 
Heartbeat CPU 0 instructions: 990000002 cycles: 833270201 heartbeat IPC: 0.714405 cumulative IPC: 0.69768 (Simulation time: 1 hr 52 min 8 sec) 
Heartbeat CPU 0 instructions: 1000000002 cycles: 847185737 heartbeat IPC: 0.718621 cumulative IPC: 0.698087 (Simulation time: 1 hr 54 min 1 sec) 
Heartbeat CPU 0 instructions: 1010000004 cycles: 860905019 heartbeat IPC: 0.728901 cumulative IPC: 0.698666 (Simulation time: 1 hr 56 min 7 sec) 
Heartbeat CPU 0 instructions: 1020000000 cycles: 876104235 heartbeat IPC: 0.657928 cumulative IPC: 0.697836 (Simulation time: 1 hr 57 min 28 sec) 
Heartbeat CPU 0 instructions: 1030000003 cycles: 892134020 heartbeat IPC: 0.623839 cumulative IPC: 0.696277 (Simulation time: 1 hr 58 min 48 sec) 
Heartbeat CPU 0 instructions: 1040000002 cycles: 907928671 heartbeat IPC: 0.633126 cumulative IPC: 0.694993 (Simulation time: 2 hr 0 min 10 sec) 
Heartbeat CPU 0 instructions: 1050000000 cycles: 923257810 heartbeat IPC: 0.652352 cumulative IPC: 0.694168 (Simulation time: 2 hr 1 min 30 sec) 
Heartbeat CPU 0 instructions: 1060000004 cycles: 938685195 heartbeat IPC: 0.648198 cumulative IPC: 0.69329 (Simulation time: 2 hr 2 min 53 sec) 
Heartbeat CPU 0 instructions: 1070000002 cycles: 954379064 heartbeat IPC: 0.637191 cumulative IPC: 0.692221 (Simulation time: 2 hr 4 min 33 sec) 
Heartbeat CPU 0 instructions: 1080000000 cycles: 969910441 heartbeat IPC: 0.643858 cumulative IPC: 0.691326 (Simulation time: 2 hr 5 min 53 sec) 
Heartbeat CPU 0 instructions: 1090000004 cycles: 985119706 heartbeat IPC: 0.657494 cumulative IPC: 0.690724 (Simulation time: 2 hr 7 min 14 sec) 
Heartbeat CPU 0 instructions: 1100000000 cycles: 1000375174 heartbeat IPC: 0.655502 cumulative IPC: 0.690105 (Simulation time: 2 hr 8 min 34 sec) 
Heartbeat CPU 0 instructions: 1110000001 cycles: 1015941328 heartbeat IPC: 0.64242 cumulative IPC: 0.689267 (Simulation time: 2 hr 9 min 55 sec) 
Heartbeat CPU 0 instructions: 1120000000 cycles: 1031719477 heartbeat IPC: 0.633788 cumulative IPC: 0.688295 (Simulation time: 2 hr 11 min 17 sec) 
Heartbeat CPU 0 instructions: 1130000000 cycles: 1047755168 heartbeat IPC: 0.623609 cumulative IPC: 0.687164 (Simulation time: 2 hr 12 min 44 sec) 
Heartbeat CPU 0 instructions: 1140000000 cycles: 1062993190 heartbeat IPC: 0.656253 cumulative IPC: 0.686658 (Simulation time: 2 hr 15 min 15 sec) 
Heartbeat CPU 0 instructions: 1150000000 cycles: 1076887644 heartbeat IPC: 0.719712 cumulative IPC: 0.687144 (Simulation time: 2 hr 16 min 52 sec) 
Heartbeat CPU 0 instructions: 1160000004 cycles: 1093398824 heartbeat IPC: 0.60565 cumulative IPC: 0.685746 (Simulation time: 2 hr 18 min 17 sec) 
Heartbeat CPU 0 instructions: 1170000004 cycles: 1109504710 heartbeat IPC: 0.620891 cumulative IPC: 0.684678 (Simulation time: 2 hr 19 min 40 sec) 
Heartbeat CPU 0 instructions: 1180000000 cycles: 1124954752 heartbeat IPC: 0.647247 cumulative IPC: 0.684097 (Simulation time: 2 hr 21 min 4 sec) 
Heartbeat CPU 0 instructions: 1190000003 cycles: 1141074670 heartbeat IPC: 0.620351 cumulative IPC: 0.683079 (Simulation time: 2 hr 22 min 57 sec) 
Heartbeat CPU 0 instructions: 1200000003 cycles: 1156602011 heartbeat IPC: 0.644025 cumulative IPC: 0.682488 (Simulation time: 2 hr 25 min 30 sec) 
Heartbeat CPU 0 instructions: 1210000001 cycles: 1170888735 heartbeat IPC: 0.69995 cumulative IPC: 0.682728 (Simulation time: 2 hr 27 min 49 sec) 
Heartbeat CPU 0 instructions: 1220000003 cycles: 1184421826 heartbeat IPC: 0.73893 cumulative IPC: 0.68345 (Simulation time: 2 hr 30 min 4 sec) 
Heartbeat CPU 0 instructions: 1230000002 cycles: 1198259894 heartbeat IPC: 0.722644 cumulative IPC: 0.683958 (Simulation time: 2 hr 31 min 19 sec) 
Heartbeat CPU 0 instructions: 1240000004 cycles: 1212266009 heartbeat IPC: 0.713974 cumulative IPC: 0.684347 (Simulation time: 2 hr 33 min 4 sec) 
Heartbeat CPU 0 instructions: 1250000002 cycles: 1226719384 heartbeat IPC: 0.69188 cumulative IPC: 0.684446 (Simulation time: 2 hr 34 min 21 sec) 
Heartbeat CPU 0 instructions: 1260000003 cycles: 1240284314 heartbeat IPC: 0.737195 cumulative IPC: 0.685091 (Simulation time: 2 hr 35 min 35 sec) 
Heartbeat CPU 0 instructions: 1270000001 cycles: 1254006175 heartbeat IPC: 0.728764 cumulative IPC: 0.685625 (Simulation time: 2 hr 36 min 50 sec) 
Heartbeat CPU 0 instructions: 1280000001 cycles: 1267194841 heartbeat IPC: 0.758227 cumulative IPC: 0.686467 (Simulation time: 2 hr 38 min 3 sec) 
Heartbeat CPU 0 instructions: 1290000003 cycles: 1281614958 heartbeat IPC: 0.693476 cumulative IPC: 0.686555 (Simulation time: 2 hr 39 min 20 sec) 
Heartbeat CPU 0 instructions: 1300000001 cycles: 1294819167 heartbeat IPC: 0.757334 cumulative IPC: 0.687358 (Simulation time: 2 hr 40 min 38 sec) 
Heartbeat CPU 0 instructions: 1310000004 cycles: 1308953387 heartbeat IPC: 0.707503 cumulative IPC: 0.6876 (Simulation time: 2 hr 42 min 41 sec) 
Heartbeat CPU 0 instructions: 1320000002 cycles: 1322574466 heartbeat IPC: 0.734156 cumulative IPC: 0.688132 (Simulation time: 2 hr 44 min 19 sec) 
Heartbeat CPU 0 instructions: 1330000002 cycles: 1335425458 heartbeat IPC: 0.77815 cumulative IPC: 0.689093 (Simulation time: 2 hr 46 min 3 sec) 
Heartbeat CPU 0 instructions: 1340000000 cycles: 1349138147 heartbeat IPC: 0.729251 cumulative IPC: 0.689545 (Simulation time: 2 hr 47 min 18 sec) 
Heartbeat CPU 0 instructions: 1350000001 cycles: 1362863146 heartbeat IPC: 0.728598 cumulative IPC: 0.68998 (Simulation time: 2 hr 48 min 34 sec) 
Heartbeat CPU 0 instructions: 1360000003 cycles: 1376404846 heartbeat IPC: 0.73846 cumulative IPC: 0.690507 (Simulation time: 2 hr 49 min 49 sec) 
Heartbeat CPU 0 instructions: 1370000000 cycles: 1390977839 heartbeat IPC: 0.686201 cumulative IPC: 0.690457 (Simulation time: 2 hr 51 min 7 sec) 
Heartbeat CPU 0 instructions: 1380000003 cycles: 1404274680 heartbeat IPC: 0.752059 cumulative IPC: 0.6911 (Simulation time: 2 hr 52 min 20 sec) 
Heartbeat CPU 0 instructions: 1390000002 cycles: 1417750890 heartbeat IPC: 0.742048 cumulative IPC: 0.691634 (Simulation time: 2 hr 53 min 35 sec) 
Heartbeat CPU 0 instructions: 1400000002 cycles: 1431439832 heartbeat IPC: 0.730517 cumulative IPC: 0.692043 (Simulation time: 2 hr 54 min 50 sec) 
Heartbeat CPU 0 instructions: 1410000002 cycles: 1443945080 heartbeat IPC: 0.799664 cumulative IPC: 0.693068 (Simulation time: 2 hr 56 min 2 sec) 
Heartbeat CPU 0 instructions: 1420000002 cycles: 1458113753 heartbeat IPC: 0.705782 cumulative IPC: 0.693204 (Simulation time: 2 hr 57 min 18 sec) 
Heartbeat CPU 0 instructions: 1430000000 cycles: 1471277047 heartbeat IPC: 0.759688 cumulative IPC: 0.693857 (Simulation time: 2 hr 58 min 32 sec) 
Heartbeat CPU 0 instructions: 1440000002 cycles: 1483935979 heartbeat IPC: 0.789956 cumulative IPC: 0.694756 (Simulation time: 2 hr 59 min 50 sec) 
Heartbeat CPU 0 instructions: 1450000002 cycles: 1496419524 heartbeat IPC: 0.801055 cumulative IPC: 0.695728 (Simulation time: 3 hr 1 min 6 sec) 
Heartbeat CPU 0 instructions: 1460000003 cycles: 1509947475 heartbeat IPC: 0.73921 cumulative IPC: 0.696154 (Simulation time: 3 hr 2 min 25 sec) 
Heartbeat CPU 0 instructions: 1470000004 cycles: 1521725075 heartbeat IPC: 0.849069 cumulative IPC: 0.697449 (Simulation time: 3 hr 3 min 39 sec) 
Heartbeat CPU 0 instructions: 1480000003 cycles: 1531127265 heartbeat IPC: 1.06358 cumulative IPC: 0.699908 (Simulation time: 3 hr 4 min 42 sec) 
Heartbeat CPU 0 instructions: 1490000003 cycles: 1541305636 heartbeat IPC: 0.982475 cumulative IPC: 0.701947 (Simulation time: 3 hr 5 min 47 sec) 
Heartbeat CPU 0 instructions: 1500000002 cycles: 1552722277 heartbeat IPC: 0.875914 cumulative IPC: 0.703344 (Simulation time: 3 hr 6 min 56 sec) 
Heartbeat CPU 0 instructions: 1510000003 cycles: 1563999766 heartbeat IPC: 0.886722 cumulative IPC: 0.704787 (Simulation time: 3 hr 8 min 6 sec) 
Heartbeat CPU 0 instructions: 1520000003 cycles: 1574653825 heartbeat IPC: 0.938609 cumulative IPC: 0.706513 (Simulation time: 3 hr 9 min 11 sec) 
Heartbeat CPU 0 instructions: 1530000001 cycles: 1586672500 heartbeat IPC: 0.832038 cumulative IPC: 0.707549 (Simulation time: 3 hr 10 min 23 sec) 
Heartbeat CPU 0 instructions: 1540000002 cycles: 1599686421 heartbeat IPC: 0.768408 cumulative IPC: 0.708088 (Simulation time: 3 hr 11 min 37 sec) 
Heartbeat CPU 0 instructions: 1550000002 cycles: 1613530684 heartbeat IPC: 0.722321 cumulative IPC: 0.708221 (Simulation time: 3 hr 12 min 53 sec) 
Heartbeat CPU 0 instructions: 1560000001 cycles: 1628795435 heartbeat IPC: 0.655104 cumulative IPC: 0.70768 (Simulation time: 3 hr 14 min 13 sec) 
Heartbeat CPU 0 instructions: 1570000004 cycles: 1644233378 heartbeat IPC: 0.647755 cumulative IPC: 0.707069 (Simulation time: 3 hr 15 min 33 sec) 
Heartbeat CPU 0 instructions: 1580000004 cycles: 1660280693 heartbeat IPC: 0.623157 cumulative IPC: 0.706188 (Simulation time: 3 hr 16 min 53 sec) 
Heartbeat CPU 0 instructions: 1590000000 cycles: 1675505321 heartbeat IPC: 0.65683 cumulative IPC: 0.705701 (Simulation time: 3 hr 18 min 14 sec) 
Heartbeat CPU 0 instructions: 1600000001 cycles: 1690564464 heartbeat IPC: 0.664048 cumulative IPC: 0.705299 (Simulation time: 3 hr 19 min 32 sec) 
Heartbeat CPU 0 instructions: 1610000001 cycles: 1705451613 heartbeat IPC: 0.67172 cumulative IPC: 0.704982 (Simulation time: 3 hr 20 min 49 sec) 
Heartbeat CPU 0 instructions: 1620000001 cycles: 1720257144 heartbeat IPC: 0.675423 cumulative IPC: 0.704706 (Simulation time: 3 hr 22 min 7 sec) 
Heartbeat CPU 0 instructions: 1630000002 cycles: 1735003680 heartbeat IPC: 0.678125 cumulative IPC: 0.704462 (Simulation time: 3 hr 23 min 24 sec) 
Heartbeat CPU 0 instructions: 1640000000 cycles: 1749993913 heartbeat IPC: 0.667101 cumulative IPC: 0.704116 (Simulation time: 3 hr 24 min 42 sec) 
Heartbeat CPU 0 instructions: 1650000000 cycles: 1763625091 heartbeat IPC: 0.733612 cumulative IPC: 0.704362 (Simulation time: 3 hr 25 min 56 sec) 
Heartbeat CPU 0 instructions: 1660000001 cycles: 1778702431 heartbeat IPC: 0.663247 cumulative IPC: 0.703986 (Simulation time: 3 hr 27 min 15 sec) 
Heartbeat CPU 0 instructions: 1670000000 cycles: 1793913678 heartbeat IPC: 0.657408 cumulative IPC: 0.70356 (Simulation time: 3 hr 28 min 34 sec) 
Heartbeat CPU 0 instructions: 1680000004 cycles: 1809752708 heartbeat IPC: 0.631352 cumulative IPC: 0.702879 (Simulation time: 3 hr 29 min 54 sec) 
Heartbeat CPU 0 instructions: 1690000000 cycles: 1826545439 heartbeat IPC: 0.595496 cumulative IPC: 0.701815 (Simulation time: 3 hr 31 min 17 sec) 
Heartbeat CPU 0 instructions: 1700000000 cycles: 1841866515 heartbeat IPC: 0.652696 cumulative IPC: 0.701376 (Simulation time: 3 hr 32 min 37 sec) 
Heartbeat CPU 0 instructions: 1710000000 cycles: 1857086140 heartbeat IPC: 0.657046 cumulative IPC: 0.700985 (Simulation time: 3 hr 33 min 58 sec) 
Heartbeat CPU 0 instructions: 1720000001 cycles: 1871401211 heartbeat IPC: 0.698565 cumulative IPC: 0.700965 (Simulation time: 3 hr 35 min 14 sec) 
Heartbeat CPU 0 instructions: 1730000002 cycles: 1886224549 heartbeat IPC: 0.674612 cumulative IPC: 0.700742 (Simulation time: 3 hr 36 min 33 sec) 
Heartbeat CPU 0 instructions: 1740000001 cycles: 1900592117 heartbeat IPC: 0.696012 cumulative IPC: 0.700704 (Simulation time: 3 hr 37 min 51 sec) 
Heartbeat CPU 0 instructions: 1750000004 cycles: 1915143242 heartbeat IPC: 0.687232 cumulative IPC: 0.700594 (Simulation time: 3 hr 39 min 9 sec) 
Heartbeat CPU 0 instructions: 1760000001 cycles: 1929149217 heartbeat IPC: 0.713981 cumulative IPC: 0.700698 (Simulation time: 3 hr 40 min 26 sec) 
Heartbeat CPU 0 instructions: 1770000003 cycles: 1941772899 heartbeat IPC: 0.792162 cumulative IPC: 0.701336 (Simulation time: 3 hr 41 min 38 sec) 
Heartbeat CPU 0 instructions: 1780000003 cycles: 1955298042 heartbeat IPC: 0.739364 cumulative IPC: 0.701618 (Simulation time: 3 hr 42 min 53 sec) 
Heartbeat CPU 0 instructions: 1790000000 cycles: 1969803558 heartbeat IPC: 0.689393 cumulative IPC: 0.701521 (Simulation time: 3 hr 44 min 10 sec) 
Heartbeat CPU 0 instructions: 1800000001 cycles: 1984799792 heartbeat IPC: 0.666834 cumulative IPC: 0.701241 (Simulation time: 3 hr 45 min 29 sec) 
Heartbeat CPU 0 instructions: 1810000004 cycles: 1999922102 heartbeat IPC: 0.661275 cumulative IPC: 0.700917 (Simulation time: 3 hr 46 min 47 sec) 
Heartbeat CPU 0 instructions: 1820000001 cycles: 2015012441 heartbeat IPC: 0.662675 cumulative IPC: 0.700611 (Simulation time: 3 hr 48 min 5 sec) 
Heartbeat CPU 0 instructions: 1830000004 cycles: 2030233523 heartbeat IPC: 0.656984 cumulative IPC: 0.700261 (Simulation time: 3 hr 49 min 24 sec) 
Heartbeat CPU 0 instructions: 1840000002 cycles: 2044000119 heartbeat IPC: 0.726396 cumulative IPC: 0.70045 (Simulation time: 3 hr 50 min 38 sec) 
Heartbeat CPU 0 instructions: 1850000001 cycles: 2058897543 heartbeat IPC: 0.671257 cumulative IPC: 0.700224 (Simulation time: 3 hr 51 min 56 sec) 
Heartbeat CPU 0 instructions: 1860000003 cycles: 2073772343 heartbeat IPC: 0.672278 cumulative IPC: 0.70001 (Simulation time: 3 hr 53 min 14 sec) 
Heartbeat CPU 0 instructions: 1870000000 cycles: 2088551147 heartbeat IPC: 0.676645 cumulative IPC: 0.699834 (Simulation time: 3 hr 54 min 31 sec) 
Heartbeat CPU 0 instructions: 1880000004 cycles: 2103372169 heartbeat IPC: 0.674718 cumulative IPC: 0.699645 (Simulation time: 3 hr 55 min 49 sec) 
Heartbeat CPU 0 instructions: 1890000004 cycles: 2118349126 heartbeat IPC: 0.667692 cumulative IPC: 0.699404 (Simulation time: 3 hr 57 min 6 sec) 
Heartbeat CPU 0 instructions: 1900000001 cycles: 2131890992 heartbeat IPC: 0.73845 cumulative IPC: 0.699668 (Simulation time: 3 hr 58 min 19 sec) 
Heartbeat CPU 0 instructions: 1910000003 cycles: 2146937677 heartbeat IPC: 0.664598 cumulative IPC: 0.699407 (Simulation time: 3 hr 59 min 37 sec) 
Heartbeat CPU 0 instructions: 1920000003 cycles: 2162046097 heartbeat IPC: 0.661883 cumulative IPC: 0.699127 (Simulation time: 4 hr 0 min 56 sec) 
Heartbeat CPU 0 instructions: 1930000001 cycles: 2177280794 heartbeat IPC: 0.656396 cumulative IPC: 0.698809 (Simulation time: 4 hr 2 min 15 sec) 
Heartbeat CPU 0 instructions: 1940000004 cycles: 2192200616 heartbeat IPC: 0.670249 cumulative IPC: 0.698603 (Simulation time: 4 hr 3 min 32 sec) 
Heartbeat CPU 0 instructions: 1950000001 cycles: 2206413721 heartbeat IPC: 0.703576 cumulative IPC: 0.698637 (Simulation time: 4 hr 4 min 49 sec) 
Heartbeat CPU 0 instructions: 1960000001 cycles: 2218526598 heartbeat IPC: 0.825568 cumulative IPC: 0.699373 (Simulation time: 4 hr 5 min 59 sec) 
Heartbeat CPU 0 instructions: 1970000004 cycles: 2232090919 heartbeat IPC: 0.737228 cumulative IPC: 0.699618 (Simulation time: 4 hr 7 min 13 sec) 
Heartbeat CPU 0 instructions: 1980000002 cycles: 2246051271 heartbeat IPC: 0.716314 cumulative IPC: 0.699728 (Simulation time: 4 hr 8 min 29 sec) 
Heartbeat CPU 0 instructions: 1990000001 cycles: 2260129035 heartbeat IPC: 0.71034 cumulative IPC: 0.699798 (Simulation time: 4 hr 9 min 45 sec) 
*** Reached end of trace: traces/482.sphinx3-417B.champsimtrace.xz
Heartbeat CPU 0 instructions: 2000000002 cycles: 2274741957 heartbeat IPC: 0.684326 cumulative IPC: 0.699692 (Simulation time: 4 hr 11 min 2 sec) 
Finished CPU 0 instructions: 1500000000 cycles: 2143799032 cumulative IPC: 0.699692 (Simulation time: 4 hr 11 min 2 sec) 

ChampSim completed all CPUs

Region of Interest Statistics

CPU 0 cumulative IPC: 0.699692 instructions: 1500000000 cycles: 2143799032
cpu0_DTLB TOTAL     ACCESS:  262318045  HIT:  259477166  MISS:    2840879
cpu0_DTLB LOAD      ACCESS:  240252967  HIT:  237523673  MISS:    2729294
cpu0_DTLB RFO       ACCESS:   22065078  HIT:   21953493  MISS:     111585
cpu0_DTLB PREFETCH  ACCESS:          0  HIT:          0  MISS:          0
cpu0_DTLB WRITEBACK ACCESS:          0  HIT:          0  MISS:          0
cpu0_DTLB TRANSLATION ACCESS:          0  HIT:          0  MISS:          0
cpu0_DTLB PREFETCH  REQUESTED:          0  ISSUED:          0  USEFUL:          0  USELESS:          0
cpu0_DTLB AVERAGE MISS LATENCY: 11.8218 cycles
cpu0_ITLB TOTAL     ACCESS:  135762536  HIT:  135762509  MISS:         27
cpu0_ITLB LOAD      ACCESS:  135762536  HIT:  135762509  MISS:         27
cpu0_ITLB RFO       ACCESS:          0  HIT:          0  MISS:          0
cpu0_ITLB PREFETCH  ACCESS:          0  HIT:          0  MISS:          0
cpu0_ITLB WRITEBACK ACCESS:          0  HIT:          0  MISS:          0
cpu0_ITLB TRANSLATION ACCESS:          0  HIT:          0  MISS:          0
cpu0_ITLB PREFETCH  REQUESTED:          0  ISSUED:          0  USEFUL:          0  USELESS:          0
cpu0_ITLB AVERAGE MISS LATENCY: 174.556 cycles
cpu0_L1I TOTAL     ACCESS:    1778269  HIT:    1776102  MISS:       2167
cpu0_L1I LOAD      ACCESS:    1778269  HIT:    1776102  MISS:       2167
cpu0_L1I RFO       ACCESS:          0  HIT:          0  MISS:          0
cpu0_L1I PREFETCH  ACCESS:          0  HIT:          0  MISS:          0
cpu0_L1I WRITEBACK ACCESS:          0  HIT:          0  MISS:          0
cpu0_L1I TRANSLATION ACCESS:          0  HIT:          0  MISS:          0
cpu0_L1I PREFETCH  REQUESTED:          0  ISSUED:          0  USEFUL:          0  USELESS:          0
cpu0_L1I AVERAGE MISS LATENCY: 211.822 cycles
cpu0_STLB TOTAL     ACCESS:    2840906  HIT:    1922504  MISS:     918402
cpu0_STLB LOAD      ACCESS:    2729321  HIT:    1827379  MISS:     901942
cpu0_STLB RFO       ACCESS:     111585  HIT:      95125  MISS:      16460
cpu0_STLB PREFETCH  ACCESS:          0  HIT:          0  MISS:          0
cpu0_STLB WRITEBACK ACCESS:          0  HIT:          0  MISS:          0
cpu0_STLB TRANSLATION ACCESS:          0  HIT:          0  MISS:          0
cpu0_STLB PREFETCH  REQUESTED:          0  ISSUED:          0  USEFUL:          0  USELESS:          0
cpu0_STLB AVERAGE MISS LATENCY: 8.65383 cycles
cpu0_L1D TOTAL     ACCESS:  189741446  HIT:  163427457  MISS:   26313989
cpu0_L1D LOAD      ACCESS:  153195135  HIT:  128409884  MISS:   24785251
cpu0_L1D RFO       ACCESS:   35663710  HIT:   34143774  MISS:    1519936
cpu0_L1D PREFETCH  ACCESS:          0  HIT:          0  MISS:          0
cpu0_L1D WRITEBACK ACCESS:          0  HIT:          0  MISS:          0
cpu0_L1D TRANSLATION ACCESS:     882601  HIT:     873799  MISS:       8802
cpu0_L1D PREFETCH  REQUESTED:          0  ISSUED:          0  USEFUL:          0  USELESS:          0
cpu0_L1D AVERAGE MISS LATENCY: 189.81 cycles
cpu0_L2C TOTAL     ACCESS:   28694115  HIT:    8132196  MISS:   20561919
cpu0_L2C LOAD      ACCESS:   24787324  HIT:    5547559  MISS:   19239765
cpu0_L2C RFO       ACCESS:    1519788  HIT:     205494  MISS:    1314294
cpu0_L2C PREFETCH  ACCESS:          0  HIT:          0  MISS:          0
cpu0_L2C WRITEBACK ACCESS:    2378201  HIT:    2374141  MISS:       4060
cpu0_L2C TRANSLATION ACCESS:       8802  HIT:       5002  MISS:       3800
cpu0_L2C PREFETCH  REQUESTED:          0  ISSUED:          0  USEFUL:          0  USELESS:          0
cpu0_L2C AVERAGE MISS LATENCY: 228.801 cycles
LLC TOTAL     ACCESS:   22514763  HIT:    3134569  MISS:   19380194
LLC LOAD      ACCESS:   19239745  HIT:     985584  MISS:   18254161
LLC RFO       ACCESS:    1314294  HIT:     232471  MISS:    1081823
LLC PREFETCH  ACCESS:          0  HIT:          0  MISS:          0
LLC WRITEBACK ACCESS:    1956924  HIT:    1914706  MISS:      42218
LLC TRANSLATION ACCESS:       3800  HIT:       1808  MISS:       1992
LLC PREFETCH  REQUESTED:          0  ISSUED:          0  USEFUL:          0  USELESS:          0
LLC AVERAGE MISS LATENCY: 220.477 cycles
~~~~~~~~~~Reuse Distance Profiler output~~~~~~~~~~
0	41557168	19677664
1	35327744	30749888
2	38552496	35225584
3	27962304	25956368
4	30681408	29551040
5	12339072	11395568
6	7091232	6203216
7	5389600	4414720
8	3354304	2902512
9	1878848	1494496
10	1849120	1559376
11	1504016	1171888
12	1687776	1110960
13	1053920	889168
14	755984	626448
15	645440	455632
16	647760	518960
17	570752	449792
18	582992	444336
19	654800	459568
20	715392	517888
21	657568	498064
22	826032	657120
23	649952	521920
24	821184	627072
25	944224	659984
26	798592	559776
27	868096	692496
28	994544	804368
29	786448	630000
30	954080	761120
31	895392	712800
32	959536	850608
33	817888	707632
34	839264	697792
35	739344	636176
36	589776	404048
37	712704	523440
38	616752	479472
39	659424	550304
40	565872	481440
41	607776	512672
42	675936	549936
43	682320	535664
44	537648	451088
45	476656	380288
46	427984	346368
47	406400	353744
48	413072	359168
49	379360	320144
50	323216	274224
51	291552	242288
52	232704	189760
53	206768	158464
54	198880	154016
55	221472	176016
56	265392	215264
57	272608	226256
58	261120	227296
59	266304	235248
60	291920	259872
61	273776	224704
62	300368	225632
63	401952	302112
64	988752	800656
66	1112208	798752
68	1019312	737072
70	807520	626560
72	610208	535232
74	558256	504144
76	553808	513456
78	489616	455280
80	413280	373728
82	396896	362240
84	389920	362448
86	376176	339712
88	377232	318784
90	331088	294032
92	278144	244336
94	255360	217744
96	236720	197488
98	235152	193632
100	244688	203616
102	245760	198096
104	250272	199536
106	272688	218944
108	291360	225104
110	279200	214944
112	243824	190832
114	219824	174144
116	190400	156528
118	167824	138048
120	165776	137168
122	174352	144576
124	187904	154400
126	243296	166992
128	425712	348480
132	447184	365600
136	602992	527024
140	735280	674880
144	887520	821200
148	905984	835728
152	742608	690656
156	535264	492208
160	365040	332064
164	289552	262656
168	266464	242048
172	242864	220624
176	228704	206400
180	243200	218336
184	278272	249872
188	333568	304848
192	394112	363536
196	398736	365840
200	373584	346176
204	301456	279392
208	314416	294352
212	373200	348400
216	381408	349632
220	397536	357536
224	362496	322944
228	289616	254256
232	222368	198032
236	199424	179760
240	195168	174864
244	180960	156608
248	159952	137904
252	147104	119424
256	245072	204288
264	166944	136480
272	140304	121616
280	139488	124080
288	166528	151712
296	175488	161072
304	142192	131264
312	123824	114240
320	126592	112912
328	183808	158832
336	228144	194608
344	193600	167968
352	147968	127104
360	116256	99792
368	88160	75376
376	69328	61184
384	60736	53680
392	59744	54416
400	59760	54528
408	59744	54672
416	58496	53536
424	64896	59376
432	79856	71392
440	102720	90448
448	115792	101168
456	90032	79184
464	64368	57120
472	54720	47920
480	48336	41696
488	48880	41408
496	45536	39952
504	42256	37600
512	92080	76256
528	88864	78016
544	102128	88160
560	104800	89008
576	80976	66480
592	78992	68736
608	67056	59536
624	64992	52176
640	70144	60848
656	75296	66704
672	76272	65984
688	67696	61136
704	56288	51296
720	47936	43120
736	46784	42496
752	50704	46640
768	53808	49536
784	67376	61728
800	59472	55200
816	55104	49792
832	52416	45200
848	49456	45376
864	55888	49488
880	81264	66832
896	57808	52144
912	53856	49520
928	45632	41360
944	46352	41952
960	40784	37072
976	39360	35712
992	42528	38832
1008	46032	42448
1024	89360	81008
1056	79872	72368
1088	75104	68000
1120	82704	76256
1152	79696	72224
1184	71760	65424
1216	72944	66944
1248	72160	66896
1280	64976	59856
1312	64992	59168
1344	70336	64064
1376	63952	58800
1408	57696	52928
1440	58800	54240
1472	63936	59616
1504	57888	54208
1536	54944	51168
1568	61936	58464
1600	62640	59680
1632	52480	49712
1664	52736	49872
1696	57040	54704
1728	52624	50112
1760	50512	48240
1792	51312	48768
1824	54800	52656
1856	49936	47264
1888	52304	50064
1920	51760	49232
1952	50224	47568
1984	48000	45456
2016	51440	48720
2048	101120	97344
2112	97216	93568
2176	91664	88224
2240	91552	88080
2304	91488	87200
2368	92128	87872
2432	82832	78624
2496	82256	78256
2560	82352	76992
2624	87040	75840
2688	90848	77600
2752	81168	75360
2816	74272	70272
2880	76400	72512
2944	74736	70400
3008	71808	65728
3072	74448	68352
3136	71808	67616
3200	68944	66288
3264	66544	64304
3328	64848	62960
3392	67920	66576
3456	63984	62848
3520	63760	62384
3584	60608	59536
3648	61760	60800
3712	60608	59648
3776	59552	58592
3840	61520	60688
3904	60480	59648
3968	58976	58112
4032	58832	58048
4096	111872	110048
4224	110704	108880
4352	106336	104992
4480	105600	104112
4608	103744	102496
4736	105104	103088
4864	99536	98048
4992	100016	98432
5120	97184	95872
5248	98384	96752
5376	93424	92112
5504	91040	88960
5632	89584	87552
5760	89104	87312
5888	87072	85488
6016	87328	85664
6144	82992	81072
6272	83776	82528
6400	82672	80896
6528	80384	79104
6656	78496	77296
6784	75936	74592
6912	75840	74560
7040	77120	75520
7168	75376	74240
7296	74704	73440
7424	74672	72592
7552	72736	70144
7680	72064	70320
7808	67968	66288
7936	70608	64960
8064	70480	63904
8192	128032	123424
8448	130512	124800
8704	127136	120048
8960	120560	114352
9216	116592	113888
9472	111840	109024
9728	107744	104976
9984	107584	102368
10240	102384	97648
10496	97616	95264
10752	105936	92048
11008	99072	90624
11264	89296	86160
11520	92192	89184
11776	93408	88176
12032	88800	83328
12288	85216	82480
12544	80608	78288
12800	77344	75424
13056	78272	75984
13312	84064	74480
13568	75984	71568
13824	73536	70944
14080	69520	67568
14336	69168	66960
14592	69360	65520
14848	69200	66480
15104	64288	62384
15360	62208	60720
15616	61920	60624
15872	60608	59152
16128	58080	57104
16384	119184	114704
16896	114064	110288
17408	118928	102944
17920	106704	100576
18432	115728	98192
18944	102832	95568
19456	100960	94272
19968	99296	93376
20480	123376	112272
20992	103760	95792
21504	75728	69168
22016	71392	64304
22528	61472	59344
23040	60432	58176
23552	58368	56848
24064	66032	63184
24576	50752	48928
25088	47424	45488
25600	45152	43712
26112	41856	40544
26624	40912	39952
27136	38160	37392
27648	37152	36544
28160	35632	35088
28672	34736	34080
29184	33264	32224
29696	31744	30896
30208	31472	30288
30720	31008	29712
31232	29536	28608
31744	29840	28704
32256	30240	29504
32768	53168	52064
33792	52320	50480
34816	47712	45840
35840	44000	42384
36864	41552	39824
37888	37680	36336
38912	34832	34224
39936	32768	31952
40960	34016	32080
41984	32352	30832
43008	28928	27760
44032	27280	25872
45056	25168	24176
46080	24320	23472
47104	23248	22656
48128	23520	21760
49152	23472	21120
50176	22768	20416
51200	22768	21168
52224	22496	21136
53248	23392	22576
54272	20704	19904
55296	21184	20672
56320	25712	25424
57344	28720	28608
58368	25440	25216
59392	25024	24864
60416	21344	21264
61440	21760	21584
62464	19728	19616
63488	17040	16896
64512	13200	13120
65536	28032	27888
67584	29888	29648
69632	26624	26400
71680	26064	25536
73728	24256	23056
75776	24864	22624
77824	24800	21584
79872	25280	21808
81920	25200	20304
83968	29728	21168
86016	26256	17312
88064	25872	15680
90112	23040	15008
92160	19648	14240
94208	16912	13392
96256	17648	14448
98304	15568	12240
100352	16016	12768
102400	14192	11056
104448	14976	11968
106496	13392	10352
108544	13744	10720
110592	13184	10080
112640	13200	10288
114688	13184	10656
116736	12176	9584
118784	11408	9344
120832	11952	10176
122880	11264	9408
124928	14768	12592
126976	14976	13056
129024	12512	10368
131072	27488	23024
135168	31488	27232
139264	36720	31264
143360	32144	26080
147456	33984	28368
151552	30800	25280
155648	28944	23856
159744	28800	23888
163840	24368	19712
167936	23472	18176
172032	23248	17952
176128	21088	15808
180224	24656	17904
184320	24752	17568
188416	20128	13296
192512	19008	12048
196608	18288	11552
200704	17616	10864
204800	22544	15280
208896	26432	19472
212992	23296	16352
217088	20384	14704
221184	19888	13984
225280	19200	13296
229376	18832	13120
233472	17584	12560
237568	19232	12944
241664	20128	13424
245760	17520	11248
249856	17312	11184
253952	16912	10752
258048	16304	10048
262144	31824	18576
270336	30624	18432
278528	29936	16208
286720	30320	16192
294912	28272	15776
303104	24640	13024
311296	27360	17024
319488	22784	13568
327680	25312	16080
335872	30368	17792
344064	90320	78016
352256	104656	93776
360448	88432	78208
368640	77248	65952
376832	93216	81824
385024	157536	143632
393216	108672	94960
401408	178976	167344
409600	112448	98944
417792	163648	147712
425984	175264	161344
434176	224400	208928
442368	183136	167456
450560	227632	211440
458752	242880	222272
466944	207840	177152
475136	496752	460080
483328	683376	648080
491520	603776	570960
499712	575904	549168
507904	725712	700752
516096	231648	207280
524288	988032	944672
540672	564576	523424
557056	923440	881424
573440	769568	728368
589824	787536	744368
606208	862592	819488
622592	952160	913312
638976	780416	751472
655360	373568	353072
671744	458896	439264
688128	346624	319088
704512	684752	649712
720896	817904	791376
737280	516048	498928
753664	300944	291232
770048	242128	219008
786432	519632	500688
802816	319856	308848
819200	258208	250560
835584	133696	125616
851968	173104	167472
868352	34240	28784
884736	112544	102224
901120	185024	170752
917504	185616	175488
933888	301632	291024
950272	167344	156608
966656	190944	179584
983040	146000	131632
999424	293184	281248
1015808	276800	267152
1032192	240432	228368
1048576	474512	454608
1081344	315472	305312
1114112	201168	194864
1146880	128096	119584
1179648	163216	144752
1212416	534512	519280
1245184	305008	298784
1277952	110656	106384
1310720	120512	117200
1343488	95712	90624
1376256	116128	100064
1409024	475008	460640
1441792	326448	317536
1474560	244544	237312
1507328	127504	123568
1540096	123760	114384
1572864	249184	239840
1605632	350800	343712
1638400	148400	145952
1671168	65952	65360
1703936	8640	8608
1736704	7920	7872
1769472	6480	6432
1802240	8272	8224
1835008	4448	4432
1867776	17632	16336
1900544	45584	44304
1933312	39984	39952
1966080	8320	8320
1998848	4896	4880
2031616	7072	7072
2064384	12176	12160
2097152	22528	22464
2162688	20672	20608
2228224	11536	11504
2293760	10176	10112
2359296	10752	10704
2424832	19808	19760
2490368	12176	12128
2555904	9984	9936
2621440	7808	7776
2686976	8368	8336
2752512	9616	9552
2818048	16032	16000
2883584	8704	8704
2949120	9312	9296
3014656	8576	8576
3080192	9088	9040
3145728	10944	10896
3211264	13792	13728
3276800	9984	9952
3342336	5136	5072
3407872	5856	5824
3473408	7920	7888
3538944	10288	10256
3604480	10416	10320
3670016	8768	8656
3735552	7808	7712
3801088	6864	6832
3866624	6944	6912
3932160	8480	8368
3997696	6048	6016
4063232	4784	4736
4128768	7136	7104
4194304	16720	16624
4325376	12864	12816
4456448	7760	7680
4587520	11968	11536
4718592	17776	17728
4849664	12704	12224
4980736	10032	9840
5111808	14304	14000
5242880	12080	12016
5373952	9392	8992
5505024	8688	8448
5636096	11664	11408
5767168	12784	11552
5898240	8112	7600
6029312	10960	10208
6160384	7840	7728
6291456	8944	8896
6422528	11312	10816
6553600	6224	5488
6684672	11056	9664
6815744	9040	8352
6946816	8656	8032
7077888	7712	7600
7208960	8032	7056
7340032	7232	6256
7471104	8928	8192
7602176	10688	9072
7733248	7008	5328
7864320	5856	5392
7995392	8544	8224
8126464	7552	7504
8257536	5616	5552
8388608	13344	12144
8650752	11408	10800
8912896	9152	9088
9175040	8000	7488
9437184	8256	7360
9699328	12016	11872
9961472	8944	8928
10223616	7504	7440
10485760	6128	6112
10747904	6608	6576
11010048	9680	9616
11272192	8880	8720
11534336	8720	8624
11796480	5728	5696
12058624	6496	6448
12320768	6624	6224
12582912	7568	7264
12845056	7392	6288
13107200	8000	6992
13369344	4992	4864
13631488	6160	6096
13893632	5040	4896
14155776	5856	5760
14417920	6496	6464
14680064	6080	6064
14942208	5744	5712
15204352	2560	2528
15466496	4528	4512
15728640	4944	4464
15990784	5952	5104
16252928	4864	4400
16515072	4336	4336
16777216	8800	8624
17301504	6576	6480
17825792	6896	6800
18350080	6096	6080
18874368	7776	7104
19398656	6272	6176
19922944	6208	6192
20447232	6176	6128
20971520	5776	5728
21495808	6096	6096
22020096	7120	6816
22544384	7120	7088
23068672	5648	5632
23592960	6096	6096
24117248	6688	6672
24641536	6992	6960
25165824	5024	4976
25690112	8160	8064
26214400	5264	5248
26738688	4848	4848
27262976	6768	6592
27787264	6208	6208
28311552	5200	5184
28835840	3424	3424
29360128	3136	3056
29884416	3104	3104
30408704	2736	2736
30932992	3104	3088
31457280	2880	2832
31981568	2992	2992
32505856	3120	3120
33030144	3456	3456
33554432	6096	6080
34603008	5680	5664
35651584	6432	6416
36700160	5376	5360
37748736	5152	5120
38797312	5248	5200
39845888	5888	5856
40894464	5920	5888
41943040	5216	5200
42991616	4720	4656
44040192	4576	4528
45088768	6096	6032
46137344	3504	3424
47185920	4240	4192
48234496	3552	3520
49283072	3904	3824
50331648	4048	3984
51380224	4064	4000
52428800	3264	3216
53477376	3008	2928
54525952	2512	2480
55574528	2752	2720
56623104	3040	3040
57671680	2992	2912
58720256	2928	2864
59768832	2320	2240
60817408	2896	2768
61865984	3280	3104
62914560	2208	2192
63963136	3040	2960
65011712	3152	3056
66060288	3408	3376
67108864	5168	5136
69206016	4000	3952
71303168	2704	2688
73400320	2528	2512
75497472	2160	2064
77594624	2464	2464
79691776	3536	3520
81788928	2368	2352
83886080	2064	2064
85983232	2272	2256
88080384	1344	1328
90177536	1424	1424
92274688	1664	1632
94371840	2208	2192
96468992	2480	2464
98566144	704	672
100663296	1072	1072
102760448	656	640
104857600	1136	1136
106954752	1200	1184
109051904	1072	1072
111149056	816	816
113246208	656	640
115343360	624	624
117440512	1008	1008
119537664	1088	1072
121634816	1552	1536
123731968	624	592
125829120	512	464
127926272	464	432
130023424	480	432
132120576	640	624
134217728	1584	1488
138412032	1312	1152
142606336	2528	2416
146800640	704	688
150994944	688	672
155189248	240	192
159383552	400	400
163577856	608	608
167772160	608	608
171966464	336	304
176160768	240	224
180355072	192	192
184549376	176	176
188743680	272	272
192937984	176	176
197132288	64	64
201326592	256	256
205520896	64	64
209715200	0	0
213909504	64	48
218103808	0	0
222298112	16	16
226492416	16	16
230686720	32	32
234881024	32	32
239075328	0	0
243269632	16	16
247463936	0	0
251658240	16	16
255852544	0	0
260046848	0	0
264241152	0	0
268435456	0	0
276824064	80	80
285212672	0	0
293601280	0	0
301989888	0	0
310378496	0	0
318767104	0	0
327155712	0	0
335544320	0	0
343932928	0	0
352321536	0	0
360710144	0	0
369098752	0	0
377487360	0	0
385875968	0	0
394264576	0	0
402653184	0	0
411041792	0	0
419430400	0	0
427819008	0	0
436207616	0	0
444596224	0	0
452984832	0	0
461373440	0	0
469762048	0	0
478150656	0	0
486539264	0	0
494927872	0	0
503316480	0	0
511705088	0	0
520093696	0	0
528482304	0	0
536870912	0	0
553648128	0	0
570425344	0	0
587202560	0	0
603979776	0	0
620756992	0	0
637534208	0	0
654311424	0	0
671088640	0	0
687865856	0	0
704643072	0	0
721420288	0	0
738197504	0	0
754974720	0	0
771751936	0	0
788529152	0	0
805306368	0	0
822083584	0	0
838860800	0	0
855638016	0	0
872415232	0	0
889192448	0	0
905969664	0	0
922746880	0	0
939524096	0	0
956301312	0	0
973078528	0	0
989855744	0	0
1006632960	0	0
1023410176	0	0
1040187392	0	0
1056964608	0	0
1073741824	0	0
1107296256	0	0
1140850688	0	0
1174405120	0	0
1207959552	0	0
1241513984	0	0
1275068416	0	0
1308622848	0	0
1342177280	0	0
1375731712	0	0
1409286144	0	0
1442840576	0	0
1476395008	0	0
1509949440	0	0
1543503872	0	0
1577058304	0	0
1610612736	0	0
1644167168	0	0
1677721600	0	0
1711276032	0	0
1744830464	0	0
1778384896	0	0
1811939328	0	0
1845493760	0	0
1879048192	0	0
1912602624	0	0
1946157056	0	0
1979711488	0	0
2013265920	0	0
2046820352	0	0
2080374784	0	0
2113929216	0	0
2147483648	0	0
2214592512	0	0
2281701376	0	0
2348810240	0	0
2415919104	0	0
2483027968	0	0
2550136832	0	0
2617245696	0	0
2684354560	0	0
2751463424	0	0
2818572288	0	0
2885681152	0	0
2952790016	0	0
3019898880	0	0
3087007744	0	0
3154116608	0	0
3221225472	0	0
3288334336	0	0
3355443200	0	0
3422552064	0	0
3489660928	0	0
3556769792	0	0
3623878656	0	0
3690987520	0	0
3758096384	0	0
3825205248	0	0
3892314112	0	0
3959422976	0	0
4026531840	0	0
4093640704	0	0
4160749568	0	0
4227858432	0	0
~~~~~~~~~~Reuse Distance Profiler output end~~~~~~~~~~

DRAM Statistics
 CHANNEL 0
 RQ ROW_BUFFER_HIT:    1224492  ROW_BUFFER_MISS:   18108557
 DBUS AVG_CONGESTED_CYCLE:     3.8658
 WQ ROW_BUFFER_HIT:     495340  ROW_BUFFER_MISS:    1261928  FULL:          0


CPU 0 Branch Prediction Accuracy: 92.0441% MPKI: 7.72025 Average ROB Occupancy at Mispredict: 170.23
Branch type MPKI
BRANCH_DIRECT_JUMP: 4.73333e-05
BRANCH_INDIRECT: 6.73333e-05
BRANCH_CONDITIONAL: 7.71995
BRANCH_DIRECT_CALL: 7.06667e-05
BRANCH_INDIRECT_CALL: 5.2e-05
BRANCH_RETURN: 6.53333e-05

