
*** ChampSim Multicore Out-of-Order Simulator ***

Warmup Instructions: 500000000
Simulation Instructions: 1500000000
Number of CPUs: 1
Off-chip DRAM Size: 4 GiB Channels: 1 Width: 64-bit Data Rate: 3200 MT/s

VirtualMemory physical capacity: 8588881920 num_ppages: 2096895
VirtualMemory page size: 4096 log2_page_size: 12

CPU 0 runs traces/482.sphinx3-1395B.champsimtrace.xz
CPU 0 Bimodal branch predictor
Basic BTB sets: 1024 ways: 8 indirect buffer size: 4096 RAS size: 64
Initializing LRU.
Initializing LRU.
Initializing LRU.
Initializing LRU.
Initializing rdLRU.
Initializing LRU.
Initializing LRU.
Heartbeat CPU 0 instructions: 10000002 cycles: 2591734 heartbeat IPC: 3.85842 cumulative IPC: 3.85842 (Simulation time: 0 hr 0 min 32 sec) 
Heartbeat CPU 0 instructions: 20000002 cycles: 5211948 heartbeat IPC: 3.81648 cumulative IPC: 3.83734 (Simulation time: 0 hr 1 min 5 sec) 
Heartbeat CPU 0 instructions: 30000003 cycles: 7806663 heartbeat IPC: 3.85399 cumulative IPC: 3.84287 (Simulation time: 0 hr 1 min 37 sec) 
Heartbeat CPU 0 instructions: 40000003 cycles: 10408752 heartbeat IPC: 3.84307 cumulative IPC: 3.84292 (Simulation time: 0 hr 2 min 10 sec) 
Heartbeat CPU 0 instructions: 50000002 cycles: 12983865 heartbeat IPC: 3.88332 cumulative IPC: 3.85093 (Simulation time: 0 hr 2 min 42 sec) 
Heartbeat CPU 0 instructions: 60000002 cycles: 15609973 heartbeat IPC: 3.80792 cumulative IPC: 3.8437 (Simulation time: 0 hr 3 min 15 sec) 
Heartbeat CPU 0 instructions: 70000003 cycles: 18206898 heartbeat IPC: 3.85071 cumulative IPC: 3.8447 (Simulation time: 0 hr 3 min 47 sec) 
Heartbeat CPU 0 instructions: 80000000 cycles: 20802692 heartbeat IPC: 3.85238 cumulative IPC: 3.84566 (Simulation time: 0 hr 4 min 20 sec) 
Heartbeat CPU 0 instructions: 90000002 cycles: 23393236 heartbeat IPC: 3.86019 cumulative IPC: 3.84727 (Simulation time: 0 hr 4 min 52 sec) 
Heartbeat CPU 0 instructions: 100000003 cycles: 25975574 heartbeat IPC: 3.87246 cumulative IPC: 3.84977 (Simulation time: 0 hr 5 min 24 sec) 
Heartbeat CPU 0 instructions: 110000000 cycles: 28581743 heartbeat IPC: 3.83705 cumulative IPC: 3.84861 (Simulation time: 0 hr 6 min 3 sec) 
Heartbeat CPU 0 instructions: 120000000 cycles: 31171483 heartbeat IPC: 3.86139 cumulative IPC: 3.84967 (Simulation time: 0 hr 7 min 2 sec) 
Heartbeat CPU 0 instructions: 130000002 cycles: 33775847 heartbeat IPC: 3.83971 cumulative IPC: 3.8489 (Simulation time: 0 hr 7 min 47 sec) 
Heartbeat CPU 0 instructions: 140000000 cycles: 36356448 heartbeat IPC: 3.87507 cumulative IPC: 3.85076 (Simulation time: 0 hr 8 min 40 sec) 
Heartbeat CPU 0 instructions: 150000002 cycles: 38977963 heartbeat IPC: 3.81459 cumulative IPC: 3.84833 (Simulation time: 0 hr 9 min 39 sec) 
Heartbeat CPU 0 instructions: 160000003 cycles: 41558204 heartbeat IPC: 3.87561 cumulative IPC: 3.85002 (Simulation time: 0 hr 10 min 12 sec) 
Heartbeat CPU 0 instructions: 170000000 cycles: 44146917 heartbeat IPC: 3.86292 cumulative IPC: 3.85078 (Simulation time: 0 hr 10 min 43 sec) 
Heartbeat CPU 0 instructions: 180000002 cycles: 46750386 heartbeat IPC: 3.84103 cumulative IPC: 3.85024 (Simulation time: 0 hr 11 min 14 sec) 
Heartbeat CPU 0 instructions: 190000004 cycles: 49351279 heartbeat IPC: 3.84483 cumulative IPC: 3.84995 (Simulation time: 0 hr 11 min 47 sec) 
Heartbeat CPU 0 instructions: 200000003 cycles: 51950949 heartbeat IPC: 3.84664 cumulative IPC: 3.84979 (Simulation time: 0 hr 12 min 20 sec) 
Heartbeat CPU 0 instructions: 210000003 cycles: 54556417 heartbeat IPC: 3.83808 cumulative IPC: 3.84923 (Simulation time: 0 hr 12 min 52 sec) 
Heartbeat CPU 0 instructions: 220000003 cycles: 57139003 heartbeat IPC: 3.87209 cumulative IPC: 3.85026 (Simulation time: 0 hr 13 min 25 sec) 
Heartbeat CPU 0 instructions: 230000003 cycles: 59780009 heartbeat IPC: 3.78644 cumulative IPC: 3.84744 (Simulation time: 0 hr 14 min 14 sec) 
Heartbeat CPU 0 instructions: 240000000 cycles: 62363110 heartbeat IPC: 3.87131 cumulative IPC: 3.84843 (Simulation time: 0 hr 14 min 48 sec) 
Heartbeat CPU 0 instructions: 250000000 cycles: 64980966 heartbeat IPC: 3.81992 cumulative IPC: 3.84728 (Simulation time: 0 hr 15 min 23 sec) 
Heartbeat CPU 0 instructions: 260000000 cycles: 67569456 heartbeat IPC: 3.86326 cumulative IPC: 3.84789 (Simulation time: 0 hr 16 min 11 sec) 
Heartbeat CPU 0 instructions: 270000003 cycles: 70182288 heartbeat IPC: 3.82727 cumulative IPC: 3.84712 (Simulation time: 0 hr 17 min 5 sec) 
Heartbeat CPU 0 instructions: 280000000 cycles: 72782764 heartbeat IPC: 3.84545 cumulative IPC: 3.84706 (Simulation time: 0 hr 17 min 45 sec) 
Heartbeat CPU 0 instructions: 290000002 cycles: 75374693 heartbeat IPC: 3.85813 cumulative IPC: 3.84745 (Simulation time: 0 hr 18 min 18 sec) 
Heartbeat CPU 0 instructions: 300000003 cycles: 78022982 heartbeat IPC: 3.77602 cumulative IPC: 3.84502 (Simulation time: 0 hr 18 min 53 sec) 
Heartbeat CPU 0 instructions: 310000000 cycles: 80612758 heartbeat IPC: 3.86134 cumulative IPC: 3.84555 (Simulation time: 0 hr 19 min 25 sec) 
Heartbeat CPU 0 instructions: 320000003 cycles: 83217176 heartbeat IPC: 3.83963 cumulative IPC: 3.84536 (Simulation time: 0 hr 20 min 0 sec) 
Heartbeat CPU 0 instructions: 330000002 cycles: 85842272 heartbeat IPC: 3.80938 cumulative IPC: 3.84426 (Simulation time: 0 hr 20 min 39 sec) 
Heartbeat CPU 0 instructions: 340000000 cycles: 88438035 heartbeat IPC: 3.85243 cumulative IPC: 3.8445 (Simulation time: 0 hr 21 min 12 sec) 
Heartbeat CPU 0 instructions: 350000001 cycles: 91040797 heartbeat IPC: 3.84207 cumulative IPC: 3.84443 (Simulation time: 0 hr 21 min 48 sec) 
Heartbeat CPU 0 instructions: 360000000 cycles: 93642584 heartbeat IPC: 3.84351 cumulative IPC: 3.8444 (Simulation time: 0 hr 22 min 50 sec) 
Heartbeat CPU 0 instructions: 370000001 cycles: 96252239 heartbeat IPC: 3.83192 cumulative IPC: 3.84407 (Simulation time: 0 hr 23 min 40 sec) 
Heartbeat CPU 0 instructions: 380000003 cycles: 98849762 heartbeat IPC: 3.84982 cumulative IPC: 3.84422 (Simulation time: 0 hr 24 min 14 sec) 
Heartbeat CPU 0 instructions: 390000001 cycles: 101495862 heartbeat IPC: 3.77915 cumulative IPC: 3.84252 (Simulation time: 0 hr 24 min 50 sec) 
Heartbeat CPU 0 instructions: 400000004 cycles: 104080559 heartbeat IPC: 3.86893 cumulative IPC: 3.84318 (Simulation time: 0 hr 25 min 45 sec) 
Heartbeat CPU 0 instructions: 410000003 cycles: 106704949 heartbeat IPC: 3.81041 cumulative IPC: 3.84237 (Simulation time: 0 hr 26 min 45 sec) 
Heartbeat CPU 0 instructions: 420000002 cycles: 109293888 heartbeat IPC: 3.86259 cumulative IPC: 3.84285 (Simulation time: 0 hr 27 min 45 sec) 
Heartbeat CPU 0 instructions: 430000004 cycles: 111930830 heartbeat IPC: 3.79227 cumulative IPC: 3.84166 (Simulation time: 0 hr 28 min 28 sec) 
Heartbeat CPU 0 instructions: 440000003 cycles: 114522659 heartbeat IPC: 3.85828 cumulative IPC: 3.84203 (Simulation time: 0 hr 29 min 0 sec) 
Heartbeat CPU 0 instructions: 450000001 cycles: 117120120 heartbeat IPC: 3.84991 cumulative IPC: 3.84221 (Simulation time: 0 hr 29 min 32 sec) 
Heartbeat CPU 0 instructions: 460000002 cycles: 119716473 heartbeat IPC: 3.85156 cumulative IPC: 3.84241 (Simulation time: 0 hr 30 min 4 sec) 
Heartbeat CPU 0 instructions: 470000000 cycles: 122313336 heartbeat IPC: 3.8508 cumulative IPC: 3.84259 (Simulation time: 0 hr 30 min 36 sec) 
Heartbeat CPU 0 instructions: 480000001 cycles: 124923507 heartbeat IPC: 3.83117 cumulative IPC: 3.84235 (Simulation time: 0 hr 31 min 8 sec) 
Heartbeat CPU 0 instructions: 490000000 cycles: 127513294 heartbeat IPC: 3.86132 cumulative IPC: 3.84274 (Simulation time: 0 hr 31 min 40 sec) 
Heartbeat CPU 0 instructions: 500000001 cycles: 130112622 heartbeat IPC: 3.84715 cumulative IPC: 3.84282 (Simulation time: 0 hr 32 min 12 sec) 

Warmup complete CPU 0 instructions: 500000001 cycles: 130112622 (Simulation time: 0 hr 32 min 12 sec) 

Heartbeat CPU 0 instructions: 510000004 cycles: 141840144 heartbeat IPC: 0.852695 cumulative IPC: 0.852695 (Simulation time: 0 hr 33 min 22 sec) 
Heartbeat CPU 0 instructions: 520000004 cycles: 152973932 heartbeat IPC: 0.898167 cumulative IPC: 0.874841 (Simulation time: 0 hr 34 min 32 sec) 
Heartbeat CPU 0 instructions: 530000002 cycles: 163479742 heartbeat IPC: 0.951854 cumulative IPC: 0.899089 (Simulation time: 0 hr 35 min 46 sec) 
Heartbeat CPU 0 instructions: 540000003 cycles: 171536779 heartbeat IPC: 1.24115 cumulative IPC: 0.96562 (Simulation time: 0 hr 37 min 24 sec) 
Heartbeat CPU 0 instructions: 550000004 cycles: 179474891 heartbeat IPC: 1.25975 cumulative IPC: 1.01292 (Simulation time: 0 hr 38 min 55 sec) 
Heartbeat CPU 0 instructions: 560000000 cycles: 187219415 heartbeat IPC: 1.29123 cumulative IPC: 1.05066 (Simulation time: 0 hr 39 min 52 sec) 
Heartbeat CPU 0 instructions: 570000000 cycles: 195261431 heartbeat IPC: 1.24347 cumulative IPC: 1.07446 (Simulation time: 0 hr 41 min 1 sec) 
Heartbeat CPU 0 instructions: 580000000 cycles: 203078053 heartbeat IPC: 1.27933 cumulative IPC: 1.09641 (Simulation time: 0 hr 42 min 7 sec) 
Heartbeat CPU 0 instructions: 590000000 cycles: 211110659 heartbeat IPC: 1.24493 cumulative IPC: 1.11114 (Simulation time: 0 hr 43 min 5 sec) 
Heartbeat CPU 0 instructions: 600000004 cycles: 219934897 heartbeat IPC: 1.13324 cumulative IPC: 1.11331 (Simulation time: 0 hr 44 min 6 sec) 
Heartbeat CPU 0 instructions: 610000001 cycles: 231254149 heartbeat IPC: 0.88345 cumulative IPC: 1.08758 (Simulation time: 0 hr 45 min 15 sec) 
Heartbeat CPU 0 instructions: 620000001 cycles: 242694797 heartbeat IPC: 0.874076 cumulative IPC: 1.06589 (Simulation time: 0 hr 46 min 25 sec) 
Heartbeat CPU 0 instructions: 630000001 cycles: 254991044 heartbeat IPC: 0.813256 cumulative IPC: 1.04101 (Simulation time: 0 hr 47 min 37 sec) 
Heartbeat CPU 0 instructions: 640000004 cycles: 266755188 heartbeat IPC: 0.850041 cumulative IPC: 1.02457 (Simulation time: 0 hr 48 min 59 sec) 
Heartbeat CPU 0 instructions: 650000002 cycles: 277061391 heartbeat IPC: 0.970289 cumulative IPC: 1.02076 (Simulation time: 0 hr 50 min 56 sec) 
Heartbeat CPU 0 instructions: 660000002 cycles: 288899378 heartbeat IPC: 0.844738 cumulative IPC: 1.00764 (Simulation time: 0 hr 52 min 49 sec) 
Heartbeat CPU 0 instructions: 670000001 cycles: 299008429 heartbeat IPC: 0.989212 cumulative IPC: 1.00654 (Simulation time: 0 hr 54 min 28 sec) 
Heartbeat CPU 0 instructions: 680000003 cycles: 307272312 heartbeat IPC: 1.21009 cumulative IPC: 1.01603 (Simulation time: 0 hr 55 min 30 sec) 
Heartbeat CPU 0 instructions: 690000004 cycles: 315377784 heartbeat IPC: 1.23373 cumulative IPC: 1.02556 (Simulation time: 0 hr 56 min 53 sec) 
Heartbeat CPU 0 instructions: 700000000 cycles: 323956968 heartbeat IPC: 1.16561 cumulative IPC: 1.03176 (Simulation time: 0 hr 58 min 15 sec) 
Heartbeat CPU 0 instructions: 710000000 cycles: 334777654 heartbeat IPC: 0.924156 cumulative IPC: 1.02607 (Simulation time: 1 hr 0 min 12 sec) 
Heartbeat CPU 0 instructions: 720000003 cycles: 346677376 heartbeat IPC: 0.840356 cumulative IPC: 1.01586 (Simulation time: 1 hr 2 min 26 sec) 
Heartbeat CPU 0 instructions: 730000002 cycles: 358278526 heartbeat IPC: 0.861983 cumulative IPC: 1.00804 (Simulation time: 1 hr 4 min 24 sec) 
Heartbeat CPU 0 instructions: 740000004 cycles: 371155560 heartbeat IPC: 0.776577 cumulative IPC: 0.995673 (Simulation time: 1 hr 6 min 33 sec) 
Heartbeat CPU 0 instructions: 750000000 cycles: 383784416 heartbeat IPC: 0.791837 cumulative IPC: 0.985525 (Simulation time: 1 hr 8 min 20 sec) 
Heartbeat CPU 0 instructions: 760000000 cycles: 397232703 heartbeat IPC: 0.743589 cumulative IPC: 0.973345 (Simulation time: 1 hr 10 min 18 sec) 
Heartbeat CPU 0 instructions: 770000002 cycles: 410888645 heartbeat IPC: 0.732282 cumulative IPC: 0.961621 (Simulation time: 1 hr 12 min 32 sec) 
Heartbeat CPU 0 instructions: 780000001 cycles: 424089619 heartbeat IPC: 0.75752 cumulative IPC: 0.952455 (Simulation time: 1 hr 14 min 0 sec) 
Heartbeat CPU 0 instructions: 790000003 cycles: 438154846 heartbeat IPC: 0.710973 cumulative IPC: 0.941429 (Simulation time: 1 hr 16 min 26 sec) 
Heartbeat CPU 0 instructions: 800000004 cycles: 452550650 heartbeat IPC: 0.694647 cumulative IPC: 0.930411 (Simulation time: 1 hr 18 min 18 sec) 
Heartbeat CPU 0 instructions: 810000004 cycles: 466948443 heartbeat IPC: 0.694551 cumulative IPC: 0.92033 (Simulation time: 1 hr 19 min 50 sec) 
Heartbeat CPU 0 instructions: 820000002 cycles: 480299278 heartbeat IPC: 0.749017 cumulative IPC: 0.913798 (Simulation time: 1 hr 21 min 58 sec) 
Heartbeat CPU 0 instructions: 830000003 cycles: 493732699 heartbeat IPC: 0.744412 cumulative IPC: 0.907541 (Simulation time: 1 hr 24 min 11 sec) 
Heartbeat CPU 0 instructions: 840000002 cycles: 505601298 heartbeat IPC: 0.842559 cumulative IPC: 0.905487 (Simulation time: 1 hr 25 min 21 sec) 
Heartbeat CPU 0 instructions: 850000004 cycles: 518728259 heartbeat IPC: 0.761791 cumulative IPC: 0.900633 (Simulation time: 1 hr 26 min 35 sec) 
Heartbeat CPU 0 instructions: 860000000 cycles: 532063587 heartbeat IPC: 0.749888 cumulative IPC: 0.895632 (Simulation time: 1 hr 27 min 50 sec) 
Heartbeat CPU 0 instructions: 870000004 cycles: 544364958 heartbeat IPC: 0.812918 cumulative IPC: 0.893175 (Simulation time: 1 hr 30 min 6 sec) 
Heartbeat CPU 0 instructions: 880000000 cycles: 555293236 heartbeat IPC: 0.915057 cumulative IPC: 0.893738 (Simulation time: 1 hr 31 min 35 sec) 
Heartbeat CPU 0 instructions: 890000003 cycles: 564937479 heartbeat IPC: 1.03689 cumulative IPC: 0.896913 (Simulation time: 1 hr 32 min 58 sec) 
Heartbeat CPU 0 instructions: 900000001 cycles: 576022361 heartbeat IPC: 0.902129 cumulative IPC: 0.897043 (Simulation time: 1 hr 34 min 8 sec) 
Heartbeat CPU 0 instructions: 910000001 cycles: 587540909 heartbeat IPC: 0.868165 cumulative IPC: 0.896315 (Simulation time: 1 hr 35 min 35 sec) 
Heartbeat CPU 0 instructions: 920000000 cycles: 599008588 heartbeat IPC: 0.872016 cumulative IPC: 0.895721 (Simulation time: 1 hr 37 min 20 sec) 
Heartbeat CPU 0 instructions: 930000001 cycles: 610369385 heartbeat IPC: 0.88022 cumulative IPC: 0.895354 (Simulation time: 1 hr 39 min 31 sec) 
Heartbeat CPU 0 instructions: 940000000 cycles: 622323143 heartbeat IPC: 0.836557 cumulative IPC: 0.893926 (Simulation time: 1 hr 40 min 50 sec) 
Heartbeat CPU 0 instructions: 950000002 cycles: 634671198 heartbeat IPC: 0.809844 cumulative IPC: 0.891869 (Simulation time: 1 hr 42 min 3 sec) 
Heartbeat CPU 0 instructions: 960000000 cycles: 647024749 heartbeat IPC: 0.809484 cumulative IPC: 0.8899 (Simulation time: 1 hr 43 min 16 sec) 
Heartbeat CPU 0 instructions: 970000004 cycles: 657802977 heartbeat IPC: 0.927797 cumulative IPC: 0.890674 (Simulation time: 1 hr 44 min 54 sec) 
Heartbeat CPU 0 instructions: 980000004 cycles: 669059118 heartbeat IPC: 0.888404 cumulative IPC: 0.890626 (Simulation time: 1 hr 46 min 4 sec) 
Heartbeat CPU 0 instructions: 990000004 cycles: 681473787 heartbeat IPC: 0.805499 cumulative IPC: 0.88871 (Simulation time: 1 hr 47 min 47 sec) 
Heartbeat CPU 0 instructions: 1000000000 cycles: 694456270 heartbeat IPC: 0.770268 cumulative IPC: 0.885985 (Simulation time: 1 hr 49 min 26 sec) 
Heartbeat CPU 0 instructions: 1010000000 cycles: 706840860 heartbeat IPC: 0.807455 cumulative IPC: 0.884299 (Simulation time: 1 hr 50 min 41 sec) 
Heartbeat CPU 0 instructions: 1020000003 cycles: 719209406 heartbeat IPC: 0.808503 cumulative IPC: 0.882707 (Simulation time: 1 hr 51 min 53 sec) 
Heartbeat CPU 0 instructions: 1030000000 cycles: 730310001 heartbeat IPC: 0.900852 cumulative IPC: 0.883043 (Simulation time: 1 hr 53 min 4 sec) 
Heartbeat CPU 0 instructions: 1040000004 cycles: 741907249 heartbeat IPC: 0.862274 cumulative IPC: 0.882649 (Simulation time: 1 hr 54 min 20 sec) 
Heartbeat CPU 0 instructions: 1050000003 cycles: 754628327 heartbeat IPC: 0.786097 cumulative IPC: 0.880682 (Simulation time: 1 hr 56 min 36 sec) 
Heartbeat CPU 0 instructions: 1060000004 cycles: 767546894 heartbeat IPC: 0.77408 cumulative IPC: 0.878522 (Simulation time: 1 hr 58 min 37 sec) 
Heartbeat CPU 0 instructions: 1070000001 cycles: 778055968 heartbeat IPC: 0.951558 cumulative IPC: 0.879707 (Simulation time: 1 hr 59 min 49 sec) 
Heartbeat CPU 0 instructions: 1080000000 cycles: 788094046 heartbeat IPC: 0.996207 cumulative IPC: 0.881484 (Simulation time: 2 hr 0 min 57 sec) 
Heartbeat CPU 0 instructions: 1090000003 cycles: 799372833 heartbeat IPC: 0.88662 cumulative IPC: 0.88157 (Simulation time: 2 hr 2 min 10 sec) 
Heartbeat CPU 0 instructions: 1100000000 cycles: 808809001 heartbeat IPC: 1.05975 cumulative IPC: 0.884048 (Simulation time: 2 hr 3 min 16 sec) 
Heartbeat CPU 0 instructions: 1110000004 cycles: 817021521 heartbeat IPC: 1.21765 cumulative IPC: 0.888036 (Simulation time: 2 hr 4 min 18 sec) 
Heartbeat CPU 0 instructions: 1120000000 cycles: 828297746 heartbeat IPC: 0.886821 cumulative IPC: 0.888017 (Simulation time: 2 hr 5 min 33 sec) 
Heartbeat CPU 0 instructions: 1130000000 cycles: 840018751 heartbeat IPC: 0.853169 cumulative IPC: 0.887441 (Simulation time: 2 hr 7 min 0 sec) 
Heartbeat CPU 0 instructions: 1140000000 cycles: 852497465 heartbeat IPC: 0.801365 cumulative IPC: 0.885954 (Simulation time: 2 hr 8 min 12 sec) 
Heartbeat CPU 0 instructions: 1150000003 cycles: 864652965 heartbeat IPC: 0.822673 cumulative IPC: 0.884907 (Simulation time: 2 hr 9 min 23 sec) 
Heartbeat CPU 0 instructions: 1160000001 cycles: 876325653 heartbeat IPC: 0.856701 cumulative IPC: 0.884466 (Simulation time: 2 hr 10 min 34 sec) 
Heartbeat CPU 0 instructions: 1170000004 cycles: 888208948 heartbeat IPC: 0.841518 cumulative IPC: 0.883793 (Simulation time: 2 hr 11 min 47 sec) 
Heartbeat CPU 0 instructions: 1180000004 cycles: 899927957 heartbeat IPC: 0.853314 cumulative IPC: 0.883329 (Simulation time: 2 hr 12 min 59 sec) 
Heartbeat CPU 0 instructions: 1190000002 cycles: 912231945 heartbeat IPC: 0.812744 cumulative IPC: 0.882218 (Simulation time: 2 hr 14 min 11 sec) 
Heartbeat CPU 0 instructions: 1200000002 cycles: 923182435 heartbeat IPC: 0.913201 cumulative IPC: 0.882646 (Simulation time: 2 hr 15 min 20 sec) 
Heartbeat CPU 0 instructions: 1210000000 cycles: 934838399 heartbeat IPC: 0.85793 cumulative IPC: 0.882288 (Simulation time: 2 hr 16 min 29 sec) 
Heartbeat CPU 0 instructions: 1220000003 cycles: 946585466 heartbeat IPC: 0.851277 cumulative IPC: 0.881842 (Simulation time: 2 hr 17 min 40 sec) 
Heartbeat CPU 0 instructions: 1230000002 cycles: 956938105 heartbeat IPC: 0.965937 cumulative IPC: 0.882895 (Simulation time: 2 hr 18 min 46 sec) 
Heartbeat CPU 0 instructions: 1240000001 cycles: 964794071 heartbeat IPC: 1.27292 cumulative IPC: 0.886566 (Simulation time: 2 hr 19 min 42 sec) 
Heartbeat CPU 0 instructions: 1250000001 cycles: 973127447 heartbeat IPC: 1.19999 cumulative IPC: 0.889664 (Simulation time: 2 hr 20 min 57 sec) 
Heartbeat CPU 0 instructions: 1260000001 cycles: 981916778 heartbeat IPC: 1.13774 cumulative IPC: 0.892224 (Simulation time: 2 hr 22 min 36 sec) 
Heartbeat CPU 0 instructions: 1270000002 cycles: 992822623 heartbeat IPC: 0.91694 cumulative IPC: 0.892536 (Simulation time: 2 hr 24 min 3 sec) 
Heartbeat CPU 0 instructions: 1280000000 cycles: 1005228815 heartbeat IPC: 0.806049 cumulative IPC: 0.89131 (Simulation time: 2 hr 25 min 18 sec) 
Heartbeat CPU 0 instructions: 1290000001 cycles: 1017267579 heartbeat IPC: 0.83065 cumulative IPC: 0.890487 (Simulation time: 2 hr 26 min 54 sec) 
Heartbeat CPU 0 instructions: 1300000002 cycles: 1031001266 heartbeat IPC: 0.728137 cumulative IPC: 0.888012 (Simulation time: 2 hr 29 min 17 sec) 
Heartbeat CPU 0 instructions: 1310000000 cycles: 1044089547 heartbeat IPC: 0.764042 cumulative IPC: 0.886237 (Simulation time: 2 hr 31 min 39 sec) 
Heartbeat CPU 0 instructions: 1320000003 cycles: 1057035002 heartbeat IPC: 0.772472 cumulative IPC: 0.884648 (Simulation time: 2 hr 33 min 57 sec) 
Heartbeat CPU 0 instructions: 1330000004 cycles: 1068745700 heartbeat IPC: 0.85392 cumulative IPC: 0.884265 (Simulation time: 2 hr 35 min 7 sec) 
Heartbeat CPU 0 instructions: 1340000000 cycles: 1082346566 heartbeat IPC: 0.735247 cumulative IPC: 0.882136 (Simulation time: 2 hr 36 min 26 sec) 
Heartbeat CPU 0 instructions: 1350000001 cycles: 1094301583 heartbeat IPC: 0.836469 cumulative IPC: 0.88157 (Simulation time: 2 hr 37 min 40 sec) 
Heartbeat CPU 0 instructions: 1360000001 cycles: 1105353764 heartbeat IPC: 0.904799 cumulative IPC: 0.881833 (Simulation time: 2 hr 39 min 17 sec) 
Heartbeat CPU 0 instructions: 1370000001 cycles: 1116767863 heartbeat IPC: 0.876109 cumulative IPC: 0.881767 (Simulation time: 2 hr 40 min 31 sec) 
Heartbeat CPU 0 instructions: 1380000001 cycles: 1128172908 heartbeat IPC: 0.876805 cumulative IPC: 0.88171 (Simulation time: 2 hr 41 min 45 sec) 
Heartbeat CPU 0 instructions: 1390000004 cycles: 1139348685 heartbeat IPC: 0.894793 cumulative IPC: 0.881855 (Simulation time: 2 hr 42 min 58 sec) 
Heartbeat CPU 0 instructions: 1400000001 cycles: 1150543575 heartbeat IPC: 0.893264 cumulative IPC: 0.88198 (Simulation time: 2 hr 44 min 11 sec) 
Heartbeat CPU 0 instructions: 1410000004 cycles: 1161110301 heartbeat IPC: 0.946367 cumulative IPC: 0.88264 (Simulation time: 2 hr 45 min 22 sec) 
Heartbeat CPU 0 instructions: 1420000000 cycles: 1172384990 heartbeat IPC: 0.886942 cumulative IPC: 0.882687 (Simulation time: 2 hr 46 min 58 sec) 
Heartbeat CPU 0 instructions: 1430000004 cycles: 1183531000 heartbeat IPC: 0.897182 cumulative IPC: 0.88284 (Simulation time: 2 hr 48 min 49 sec) 
Heartbeat CPU 0 instructions: 1440000004 cycles: 1195277582 heartbeat IPC: 0.851311 cumulative IPC: 0.882492 (Simulation time: 2 hr 50 min 53 sec) 
Heartbeat CPU 0 instructions: 1450000001 cycles: 1207702571 heartbeat IPC: 0.804829 cumulative IPC: 0.881597 (Simulation time: 2 hr 53 min 9 sec) 
Heartbeat CPU 0 instructions: 1460000000 cycles: 1222070369 heartbeat IPC: 0.696001 cumulative IPC: 0.879155 (Simulation time: 2 hr 54 min 38 sec) 
Heartbeat CPU 0 instructions: 1470000001 cycles: 1235404273 heartbeat IPC: 0.749968 cumulative IPC: 0.877596 (Simulation time: 2 hr 55 min 51 sec) 
Heartbeat CPU 0 instructions: 1480000001 cycles: 1249266337 heartbeat IPC: 0.721393 cumulative IPC: 0.875662 (Simulation time: 2 hr 57 min 6 sec) 
Heartbeat CPU 0 instructions: 1490000000 cycles: 1263714954 heartbeat IPC: 0.692108 cumulative IPC: 0.873322 (Simulation time: 2 hr 58 min 21 sec) 
Heartbeat CPU 0 instructions: 1500000001 cycles: 1276781353 heartbeat IPC: 0.765322 cumulative IPC: 0.872091 (Simulation time: 2 hr 59 min 42 sec) 
Heartbeat CPU 0 instructions: 1510000002 cycles: 1289919892 heartbeat IPC: 0.76112 cumulative IPC: 0.870834 (Simulation time: 3 hr 0 min 55 sec) 
Heartbeat CPU 0 instructions: 1520000002 cycles: 1304029957 heartbeat IPC: 0.708714 cumulative IPC: 0.868886 (Simulation time: 3 hr 2 min 10 sec) 
Heartbeat CPU 0 instructions: 1530000001 cycles: 1316623910 heartbeat IPC: 0.794032 cumulative IPC: 0.868091 (Simulation time: 3 hr 3 min 22 sec) 
Heartbeat CPU 0 instructions: 1540000003 cycles: 1328655505 heartbeat IPC: 0.831145 cumulative IPC: 0.86772 (Simulation time: 3 hr 4 min 33 sec) 
Heartbeat CPU 0 instructions: 1550000002 cycles: 1340012270 heartbeat IPC: 0.880532 cumulative IPC: 0.867841 (Simulation time: 3 hr 5 min 42 sec) 
Heartbeat CPU 0 instructions: 1560000001 cycles: 1353523777 heartbeat IPC: 0.74011 cumulative IPC: 0.86643 (Simulation time: 3 hr 6 min 58 sec) 
Heartbeat CPU 0 instructions: 1570000004 cycles: 1366657873 heartbeat IPC: 0.761377 cumulative IPC: 0.865314 (Simulation time: 3 hr 8 min 14 sec) 
Heartbeat CPU 0 instructions: 1580000001 cycles: 1381320997 heartbeat IPC: 0.681983 cumulative IPC: 0.863166 (Simulation time: 3 hr 9 min 33 sec) 
Heartbeat CPU 0 instructions: 1590000001 cycles: 1394914757 heartbeat IPC: 0.735632 cumulative IPC: 0.861795 (Simulation time: 3 hr 10 min 47 sec) 
Heartbeat CPU 0 instructions: 1600000002 cycles: 1408107442 heartbeat IPC: 0.757996 cumulative IPC: 0.860723 (Simulation time: 3 hr 12 min 1 sec) 
Heartbeat CPU 0 instructions: 1610000004 cycles: 1420663517 heartbeat IPC: 0.796427 cumulative IPC: 0.860098 (Simulation time: 3 hr 13 min 13 sec) 
Heartbeat CPU 0 instructions: 1620000004 cycles: 1433670466 heartbeat IPC: 0.76882 cumulative IPC: 0.859187 (Simulation time: 3 hr 14 min 26 sec) 
Heartbeat CPU 0 instructions: 1630000000 cycles: 1447768387 heartbeat IPC: 0.709324 cumulative IPC: 0.857584 (Simulation time: 3 hr 15 min 44 sec) 
Heartbeat CPU 0 instructions: 1640000001 cycles: 1461417267 heartbeat IPC: 0.732661 cumulative IPC: 0.856303 (Simulation time: 3 hr 17 min 0 sec) 
Heartbeat CPU 0 instructions: 1650000000 cycles: 1473910355 heartbeat IPC: 0.800443 cumulative IPC: 0.855784 (Simulation time: 3 hr 18 min 11 sec) 
Heartbeat CPU 0 instructions: 1660000002 cycles: 1484840445 heartbeat IPC: 0.914906 cumulative IPC: 0.856261 (Simulation time: 3 hr 19 min 19 sec) 
Heartbeat CPU 0 instructions: 1670000001 cycles: 1496221039 heartbeat IPC: 0.878689 cumulative IPC: 0.856447 (Simulation time: 3 hr 20 min 29 sec) 
Heartbeat CPU 0 instructions: 1680000001 cycles: 1508407928 heartbeat IPC: 0.820554 cumulative IPC: 0.85613 (Simulation time: 3 hr 21 min 40 sec) 
Heartbeat CPU 0 instructions: 1690000000 cycles: 1520544315 heartbeat IPC: 0.823968 cumulative IPC: 0.855849 (Simulation time: 3 hr 22 min 50 sec) 
Heartbeat CPU 0 instructions: 1700000003 cycles: 1533305191 heartbeat IPC: 0.783646 cumulative IPC: 0.855193 (Simulation time: 3 hr 24 min 2 sec) 
Heartbeat CPU 0 instructions: 1710000000 cycles: 1546410596 heartbeat IPC: 0.763044 cumulative IPC: 0.85434 (Simulation time: 3 hr 25 min 16 sec) 
Heartbeat CPU 0 instructions: 1720000004 cycles: 1559809149 heartbeat IPC: 0.74635 cumulative IPC: 0.853328 (Simulation time: 3 hr 26 min 31 sec) 
Heartbeat CPU 0 instructions: 1730000002 cycles: 1573716551 heartbeat IPC: 0.719041 cumulative IPC: 0.852034 (Simulation time: 3 hr 27 min 47 sec) 
Heartbeat CPU 0 instructions: 1740000000 cycles: 1586719414 heartbeat IPC: 0.769061 cumulative IPC: 0.851294 (Simulation time: 3 hr 29 min 1 sec) 
Heartbeat CPU 0 instructions: 1750000000 cycles: 1600691762 heartbeat IPC: 0.715699 cumulative IPC: 0.850005 (Simulation time: 3 hr 30 min 17 sec) 
Heartbeat CPU 0 instructions: 1760000000 cycles: 1613565974 heartbeat IPC: 0.776747 cumulative IPC: 0.849369 (Simulation time: 3 hr 31 min 30 sec) 
Heartbeat CPU 0 instructions: 1770000003 cycles: 1625976088 heartbeat IPC: 0.805795 cumulative IPC: 0.849008 (Simulation time: 3 hr 32 min 41 sec) 
Heartbeat CPU 0 instructions: 1780000002 cycles: 1638172154 heartbeat IPC: 0.819936 cumulative IPC: 0.848773 (Simulation time: 3 hr 33 min 54 sec) 
Heartbeat CPU 0 instructions: 1790000001 cycles: 1650137524 heartbeat IPC: 0.835745 cumulative IPC: 0.84867 (Simulation time: 3 hr 35 min 4 sec) 
Heartbeat CPU 0 instructions: 1800000004 cycles: 1661678578 heartbeat IPC: 0.866472 cumulative IPC: 0.848804 (Simulation time: 3 hr 36 min 12 sec) 
Heartbeat CPU 0 instructions: 1810000003 cycles: 1673831798 heartbeat IPC: 0.822827 cumulative IPC: 0.8486 (Simulation time: 3 hr 37 min 23 sec) 
Heartbeat CPU 0 instructions: 1820000000 cycles: 1687336040 heartbeat IPC: 0.740508 cumulative IPC: 0.847663 (Simulation time: 3 hr 38 min 38 sec) 
Heartbeat CPU 0 instructions: 1830000000 cycles: 1700053186 heartbeat IPC: 0.78634 cumulative IPC: 0.847166 (Simulation time: 3 hr 39 min 51 sec) 
Heartbeat CPU 0 instructions: 1840000000 cycles: 1713486033 heartbeat IPC: 0.744444 cumulative IPC: 0.846294 (Simulation time: 3 hr 41 min 6 sec) 
Heartbeat CPU 0 instructions: 1850000001 cycles: 1724821416 heartbeat IPC: 0.882194 cumulative IPC: 0.84655 (Simulation time: 3 hr 42 min 14 sec) 
Heartbeat CPU 0 instructions: 1860000002 cycles: 1738004391 heartbeat IPC: 0.758554 cumulative IPC: 0.845828 (Simulation time: 3 hr 43 min 28 sec) 
Heartbeat CPU 0 instructions: 1870000003 cycles: 1751095654 heartbeat IPC: 0.763868 cumulative IPC: 0.845166 (Simulation time: 3 hr 44 min 41 sec) 
Heartbeat CPU 0 instructions: 1880000003 cycles: 1765208848 heartbeat IPC: 0.708557 cumulative IPC: 0.843987 (Simulation time: 3 hr 45 min 57 sec) 
Heartbeat CPU 0 instructions: 1890000001 cycles: 1778934279 heartbeat IPC: 0.728574 cumulative IPC: 0.843026 (Simulation time: 3 hr 47 min 12 sec) 
Heartbeat CPU 0 instructions: 1900000004 cycles: 1792679414 heartbeat IPC: 0.72753 cumulative IPC: 0.842071 (Simulation time: 3 hr 48 min 27 sec) 
Heartbeat CPU 0 instructions: 1910000001 cycles: 1806114447 heartbeat IPC: 0.744322 cumulative IPC: 0.841288 (Simulation time: 3 hr 49 min 41 sec) 
Heartbeat CPU 0 instructions: 1920000001 cycles: 1820982781 heartbeat IPC: 0.67257 cumulative IPC: 0.839804 (Simulation time: 3 hr 50 min 59 sec) 
Heartbeat CPU 0 instructions: 1930000002 cycles: 1835571918 heartbeat IPC: 0.685442 cumulative IPC: 0.838484 (Simulation time: 3 hr 52 min 15 sec) 
Heartbeat CPU 0 instructions: 1940000000 cycles: 1850034046 heartbeat IPC: 0.691461 cumulative IPC: 0.837248 (Simulation time: 3 hr 53 min 32 sec) 
Heartbeat CPU 0 instructions: 1950000000 cycles: 1863907992 heartbeat IPC: 0.720775 cumulative IPC: 0.836316 (Simulation time: 3 hr 54 min 46 sec) 
Heartbeat CPU 0 instructions: 1960000000 cycles: 1877712188 heartbeat IPC: 0.724417 cumulative IPC: 0.835432 (Simulation time: 3 hr 56 min 1 sec) 
Heartbeat CPU 0 instructions: 1970000003 cycles: 1892113747 heartbeat IPC: 0.694369 cumulative IPC: 0.834279 (Simulation time: 3 hr 57 min 17 sec) 
Heartbeat CPU 0 instructions: 1980000001 cycles: 1906836369 heartbeat IPC: 0.679227 cumulative IPC: 0.832994 (Simulation time: 3 hr 58 min 34 sec) 
Heartbeat CPU 0 instructions: 1990000000 cycles: 1921377045 heartbeat IPC: 0.687726 cumulative IPC: 0.831815 (Simulation time: 3 hr 59 min 50 sec) 
*** Reached end of trace: traces/482.sphinx3-1395B.champsimtrace.xz
Heartbeat CPU 0 instructions: 2000000002 cycles: 1936072819 heartbeat IPC: 0.680468 cumulative IPC: 0.830583 (Simulation time: 4 hr 1 min 8 sec) 
Finished CPU 0 instructions: 1500000001 cycles: 1805960197 cumulative IPC: 0.830583 (Simulation time: 4 hr 1 min 8 sec) 

ChampSim completed all CPUs

Region of Interest Statistics

CPU 0 cumulative IPC: 0.830583 instructions: 1500000001 cycles: 1805960197
cpu0_DTLB TOTAL     ACCESS:  259074617  HIT:  256819035  MISS:    2255582
cpu0_DTLB LOAD      ACCESS:  239622281  HIT:  237484192  MISS:    2138089
cpu0_DTLB RFO       ACCESS:   19452336  HIT:   19334843  MISS:     117493
cpu0_DTLB PREFETCH  ACCESS:          0  HIT:          0  MISS:          0
cpu0_DTLB WRITEBACK ACCESS:          0  HIT:          0  MISS:          0
cpu0_DTLB TRANSLATION ACCESS:          0  HIT:          0  MISS:          0
cpu0_DTLB PREFETCH  REQUESTED:          0  ISSUED:          0  USEFUL:          0  USELESS:          0
cpu0_DTLB AVERAGE MISS LATENCY: 11.717 cycles
cpu0_ITLB TOTAL     ACCESS:  133414556  HIT:  133414548  MISS:          8
cpu0_ITLB LOAD      ACCESS:  133414556  HIT:  133414548  MISS:          8
cpu0_ITLB RFO       ACCESS:          0  HIT:          0  MISS:          0
cpu0_ITLB PREFETCH  ACCESS:          0  HIT:          0  MISS:          0
cpu0_ITLB WRITEBACK ACCESS:          0  HIT:          0  MISS:          0
cpu0_ITLB TRANSLATION ACCESS:          0  HIT:          0  MISS:          0
cpu0_ITLB PREFETCH  REQUESTED:          0  ISSUED:          0  USEFUL:          0  USELESS:          0
cpu0_ITLB AVERAGE MISS LATENCY: 21.125 cycles
cpu0_L1I TOTAL     ACCESS:    1669845  HIT:    1667510  MISS:       2335
cpu0_L1I LOAD      ACCESS:    1669845  HIT:    1667510  MISS:       2335
cpu0_L1I RFO       ACCESS:          0  HIT:          0  MISS:          0
cpu0_L1I PREFETCH  ACCESS:          0  HIT:          0  MISS:          0
cpu0_L1I WRITEBACK ACCESS:          0  HIT:          0  MISS:          0
cpu0_L1I TRANSLATION ACCESS:          0  HIT:          0  MISS:          0
cpu0_L1I PREFETCH  REQUESTED:          0  ISSUED:          0  USEFUL:          0  USELESS:          0
cpu0_L1I AVERAGE MISS LATENCY: 214.839 cycles
cpu0_STLB TOTAL     ACCESS:    2255590  HIT:    1578487  MISS:     677103
cpu0_STLB LOAD      ACCESS:    2138097  HIT:    1477777  MISS:     660320
cpu0_STLB RFO       ACCESS:     117493  HIT:     100710  MISS:      16783
cpu0_STLB PREFETCH  ACCESS:          0  HIT:          0  MISS:          0
cpu0_STLB WRITEBACK ACCESS:          0  HIT:          0  MISS:          0
cpu0_STLB TRANSLATION ACCESS:          0  HIT:          0  MISS:          0
cpu0_STLB PREFETCH  REQUESTED:          0  ISSUED:          0  USEFUL:          0  USELESS:          0
cpu0_STLB AVERAGE MISS LATENCY: 8.92336 cycles
cpu0_L1D TOTAL     ACCESS:  179529360  HIT:  156223795  MISS:   23305565
cpu0_L1D LOAD      ACCESS:  151086490  HIT:  129511035  MISS:   21575455
cpu0_L1D RFO       ACCESS:   27796576  HIT:   26077842  MISS:    1718734
cpu0_L1D PREFETCH  ACCESS:          0  HIT:          0  MISS:          0
cpu0_L1D WRITEBACK ACCESS:          0  HIT:          0  MISS:          0
cpu0_L1D TRANSLATION ACCESS:     646294  HIT:     634918  MISS:      11376
cpu0_L1D PREFETCH  REQUESTED:          0  ISSUED:          0  USEFUL:          0  USELESS:          0
cpu0_L1D AVERAGE MISS LATENCY: 188.057 cycles
cpu0_L2C TOTAL     ACCESS:   25650844  HIT:    6213493  MISS:   19437351
cpu0_L2C LOAD      ACCESS:   21577697  HIT:    3719109  MISS:   17858588
cpu0_L2C RFO       ACCESS:    1718599  HIT:     146127  MISS:    1572472
cpu0_L2C PREFETCH  ACCESS:          0  HIT:          0  MISS:          0
cpu0_L2C WRITEBACK ACCESS:    2343172  HIT:    2339991  MISS:       3181
cpu0_L2C TRANSLATION ACCESS:      11376  HIT:       8266  MISS:       3110
cpu0_L2C PREFETCH  REQUESTED:          0  ISSUED:          0  USEFUL:          0  USELESS:          0
cpu0_L2C AVERAGE MISS LATENCY: 212.28 cycles
LLC TOTAL     ACCESS:   21472950  HIT:    4397719  MISS:   17075231
LLC LOAD      ACCESS:   17858549  HIT:    2007964  MISS:   15850585
LLC RFO       ACCESS:    1572472  HIT:     359950  MISS:    1212522
LLC PREFETCH  ACCESS:          0  HIT:          0  MISS:          0
LLC WRITEBACK ACCESS:    2038819  HIT:    2027887  MISS:      10932
LLC TRANSLATION ACCESS:       3110  HIT:       1918  MISS:       1192
LLC PREFETCH  REQUESTED:          0  ISSUED:          0  USEFUL:          0  USELESS:          0
LLC AVERAGE MISS LATENCY: 217.745 cycles
~~~~~~~~~~Reuse Distance Profiler output~~~~~~~~~~
0	34690944	18164752
1	36105120	33025552
2	33204576	30984272
3	32161360	30880688
4	40307312	39426512
5	15031488	14289824
6	8402368	7703856
7	6942752	6119088
8	3412640	3083168
9	2027104	1727968
10	1901408	1694128
11	1388112	1151200
12	1384496	1041472
13	1037600	912288
14	684048	577888
15	603536	416064
16	613616	512688
17	492256	389216
18	495024	361776
19	569232	386672
20	660592	492064
21	668112	503280
22	837568	667088
23	713696	592352
24	835744	667408
25	993152	738000
26	814992	600096
27	881136	723856
28	984944	821696
29	790640	645616
30	922208	752192
31	846768	690336
32	959824	848048
33	747280	642400
34	841120	715472
35	651776	563792
36	528624	379600
37	640912	504368
38	531744	444800
39	510416	442560
40	404704	346224
41	382896	323520
42	403328	332912
43	400336	309296
44	307824	258448
45	265680	209712
46	258672	201936
47	238992	205088
48	235840	203584
49	229616	194432
50	194608	164208
51	170208	144208
52	147104	123520
53	134256	109072
54	130432	107952
55	151440	125360
56	177168	152608
57	175680	151040
58	186800	166016
59	211664	192080
60	275744	255920
61	245520	215904
62	288672	224048
63	425584	316272
64	1182592	978336
66	1317312	1006864
68	1146192	864880
70	799424	649552
72	471472	438928
74	381104	356528
76	369408	349072
78	313968	296112
80	281040	255312
82	275632	251472
84	265520	248688
86	254896	233760
88	251264	219920
90	221088	201712
92	187232	170304
94	166816	150432
96	147216	130256
98	138304	119936
100	140368	121424
102	137264	111632
104	138160	110752
106	145808	118336
108	157744	118592
110	141856	111776
112	132256	108688
114	119248	96992
116	111888	92000
118	102736	84672
120	114736	97120
122	112528	95344
124	122640	104064
126	191248	124128
128	295248	256016
132	291456	233872
136	367776	323504
140	429552	396592
144	475152	438320
148	456432	421056
152	369888	339472
156	270192	246672
160	202112	181568
164	170208	154080
168	155808	139648
172	144336	128896
176	135408	121504
180	142352	125760
184	152160	136352
188	178464	162656
192	197184	180208
196	191632	177056
200	205312	191280
204	145504	133760
208	201792	190032
212	287360	274272
216	241504	224800
220	207760	189408
224	180784	163968
228	155456	140096
232	122272	108672
236	110000	98176
240	106736	92816
244	100192	83744
248	94944	77424
252	100096	69888
256	180752	140944
264	135600	101856
272	91904	77616
280	87200	76704
288	88032	76016
296	91872	82112
304	84000	75632
312	72416	65248
320	77376	68208
328	101680	87616
336	123872	105504
344	119520	100704
352	105200	87088
360	86944	71024
368	69440	57840
376	55376	46544
384	49424	41920
392	46608	39904
400	45696	39712
408	45792	40096
416	46544	40064
424	49184	42416
432	54832	45600
440	61936	50608
448	65456	53568
456	53104	45008
464	43712	36768
472	39744	33120
480	37616	29824
488	38016	30352
496	34480	28048
504	31776	25648
512	72208	55568
528	72416	57952
544	65584	51456
560	67792	52528
576	59280	44176
592	54288	42320
608	49648	41120
624	52192	36576
640	51072	40976
656	46448	37360
672	45136	35936
688	41216	34320
704	37104	31584
720	34336	28432
736	33168	28384
752	34416	29936
768	32912	28320
784	50944	45568
800	39616	34064
816	36944	30416
832	39056	31008
848	33360	29056
864	44096	36304
880	80864	60160
896	36624	31264
912	30320	26096
928	31360	26528
944	29072	23888
960	25920	22032
976	25824	21456
992	26304	22352
1008	29488	25936
1024	58512	49344
1056	54256	46224
1088	47808	40704
1120	48608	42752
1152	48608	41520
1184	46128	39968
1216	41200	34976
1248	44064	37568
1280	42336	36240
1312	39536	33888
1344	39472	33920
1376	38256	33136
1408	37360	32736
1440	36464	32000
1472	35648	31472
1504	33536	29744
1536	32944	30000
1568	36864	33504
1600	37808	35232
1632	28432	26544
1664	30240	28224
1696	32080	30000
1728	31008	29328
1760	26528	24896
1792	29264	27536
1824	31392	29696
1856	29024	27424
1888	29968	28272
1920	26416	24992
1952	27936	26448
1984	28656	26192
2016	30096	28416
2048	57696	55504
2112	57472	55392
2176	55520	53632
2240	57200	54480
2304	58528	54832
2368	53648	49104
2432	51488	47920
2496	51136	47296
2560	48080	43392
2624	55936	45168
2688	58720	43840
2752	45600	38992
2816	43440	39840
2880	41296	37776
2944	39376	34880
3008	40624	35408
3072	41472	36432
3136	39680	35392
3200	38144	35696
3264	35648	33840
3328	36976	35360
3392	37424	36432
3456	35152	34176
3520	34368	33552
3584	32992	32128
3648	33184	32656
3712	32288	31808
3776	31520	31120
3840	34320	33872
3904	33616	33200
3968	31232	30848
4032	31184	30960
4096	63856	62960
4224	61264	59376
4352	64352	63328
4480	59152	58240
4608	61936	60592
4736	59072	57776
4864	59184	58080
4992	59616	58640
5120	60848	59728
5248	56544	55872
5376	55360	54352
5504	53488	51792
5632	51616	50016
5760	49920	48560
5888	50672	49552
6016	49024	47664
6144	48256	46640
6272	46800	45712
6400	45072	43968
6528	45392	44192
6656	44912	44208
6784	46896	46080
6912	44048	43024
7040	47232	45744
7168	43696	42736
7296	42704	41936
7424	43664	42192
7552	42560	40320
7680	40352	38192
7808	40704	39712
7936	43792	37936
8064	46416	38432
8192	78752	75216
8448	77200	73184
8704	81040	73840
8960	75440	69632
9216	70512	68592
9472	68800	66848
9728	66240	64368
9984	69088	64528
10240	71984	66256
10496	61408	59184
10752	77152	60608
11008	67072	57840
11264	60256	57344
11520	61936	58128
11776	60736	54656
12032	58400	52800
12288	52304	50304
12544	54480	52944
12800	53088	51968
13056	52480	50288
13312	58976	48016
13568	51584	46640
13824	47024	45248
14080	47824	46464
14336	46656	44528
14592	48304	43648
14848	45232	43008
15104	43696	42192
15360	42720	41872
15616	42112	40864
15872	41968	41152
16128	41424	40592
16384	81968	78032
16896	80928	78800
17408	91360	72688
17920	78656	72480
18432	88176	68560
18944	74896	64480
19456	65824	60592
19968	67632	62736
20480	95376	84144
20992	82288	75808
21504	51392	45232
22016	44720	39856
22528	39424	37568
23040	37056	35088
23552	38192	37440
24064	53152	50160
24576	30448	29856
25088	27344	26672
25600	25904	25280
26112	25136	24816
26624	23952	23328
27136	22288	21856
27648	22176	21952
28160	20944	20608
28672	20848	20464
29184	20784	19872
29696	18976	18368
30208	19008	18736
30720	17968	17520
31232	16320	16224
31744	15840	15536
32256	16432	16240
32768	30032	29744
33792	28784	28368
34816	27664	26912
35840	26160	25856
36864	25056	24336
37888	23840	23488
38912	23008	22640
39936	23056	22480
40960	25440	24208
41984	23472	22816
43008	20864	20576
44032	21088	19792
45056	18720	17664
46080	18720	18128
47104	19072	18992
48128	20128	18176
49152	19920	17024
50176	15904	15440
51200	17200	16688
52224	19424	18832
53248	22560	22240
54272	22080	21824
55296	21760	21568
56320	22992	22848
57344	22288	22176
58368	19936	19792
59392	17424	17280
60416	19984	19744
61440	16848	16688
62464	17344	17280
63488	14336	14192
64512	11440	11360
65536	22848	22800
67584	22448	22352
69632	21264	18832
71680	31952	18144
73728	30736	16992
75776	31664	18000
77824	29440	16544
79872	26192	16976
81920	22768	15376
83968	23072	16192
86016	21360	14240
88064	20064	13712
90112	17536	12128
92160	17968	13488
94208	15424	11872
96256	15744	12496
98304	14016	11040
100352	13168	10304
102400	12816	9744
104448	13536	11152
106496	12912	10320
108544	10640	8448
110592	9536	7600
112640	10736	8112
114688	10368	7792
116736	9536	6912
118784	9344	6912
120832	10720	7712
122880	10512	7856
124928	14992	12080
126976	18352	15632
129024	15424	12880
131072	23584	18624
135168	27968	23008
139264	36096	30512
143360	25680	20736
147456	20320	15280
151552	18240	12944
155648	20032	14960
159744	24864	15232
163840	27872	14880
167936	24832	13200
172032	24288	11376
176128	24880	12512
180224	24592	14912
184320	24176	15504
188416	19696	11728
192512	19872	10576
196608	19456	9968
200704	15552	8192
204800	19904	12336
208896	23584	17024
212992	17776	11824
217088	17280	11168
221184	17920	12160
225280	16704	11280
229376	16688	11616
233472	18000	12384
237568	18096	12544
241664	18928	12640
245760	17888	11120
249856	17392	11008
253952	17872	11744
258048	17616	10512
262144	29520	16064
270336	30672	15552
278528	29632	13984
286720	31824	14528
294912	30192	15248
303104	36288	15696
311296	75040	26896
319488	236304	185424
327680	1166576	1106448
335872	404000	384592
344064	142976	128864
352256	78368	61696
360448	172720	129920
368640	253136	189664
376832	1315424	1230992
385024	978944	905888
393216	1588304	1540000
401408	579200	548336
409600	393536	360560
417792	513168	481328
425984	564464	530800
434176	340928	301744
442368	650320	612832
450560	692624	659712
458752	500224	472336
466944	532272	498976
475136	365968	332096
483328	587520	551504
491520	561168	531040
499712	696672	673488
507904	389184	372208
516096	229648	213328
524288	534512	500368
540672	478832	449728
557056	454560	434192
573440	244736	223424
589824	277792	260656
606208	101264	89824
622592	194912	173376
638976	308816	287904
655360	248784	220048
671744	94848	69680
688128	160416	131328
704512	670880	642672
720896	281936	271840
737280	65648	56288
753664	165184	141344
770048	118688	91872
786432	306896	277568
802816	674400	640224
819200	456048	425360
835584	415632	393296
851968	566240	548768
868352	322816	308448
884736	133984	116144
901120	268880	250560
917504	274544	256592
933888	422592	408016
950272	294608	286112
966656	310480	305616
983040	10400	8896
999424	7264	6896
1015808	35408	34688
1032192	38560	36544
1048576	41312	37824
1081344	52464	48400
1114112	99024	94896
1146880	41104	41008
1179648	15328	13008
1212416	46032	41696
1245184	104704	101648
1277952	41744	41360
1310720	3232	3216
1343488	5008	4992
1376256	4800	4752
1409024	4976	4864
1441792	7168	7120
1474560	9104	9088
1507328	5024	5024
1540096	6352	6336
1572864	7344	7328
1605632	6608	6592
1638400	5216	5184
1671168	9008	8992
1703936	7904	7888
1736704	5280	5280
1769472	3600	3568
1802240	6976	6944
1835008	4864	4848
1867776	12464	12416
1900544	11248	11248
1933312	9696	9696
1966080	4304	4288
1998848	3328	3328
2031616	5584	5568
2064384	8064	8032
2097152	6784	6752
2162688	8832	8832
2228224	8320	8256
2293760	6288	6240
2359296	5328	5296
2424832	10160	10096
2490368	7936	7856
2555904	8992	8912
2621440	4944	4896
2686976	6400	6368
2752512	7936	7872
2818048	7136	7104
2883584	8096	8064
2949120	5264	5264
3014656	7536	7472
3080192	6512	6400
3145728	4432	4384
3211264	6192	6176
3276800	3216	3120
3342336	2736	2736
3407872	7264	7232
3473408	4576	4560
3538944	4256	4224
3604480	5776	5744
3670016	4528	4496
3735552	4496	4448
3801088	3264	3248
3866624	5584	5024
3932160	3280	3168
3997696	4096	3584
4063232	5392	5280
4128768	3808	3760
4194304	9056	8240
4325376	9648	8768
4456448	6704	6144
4587520	11232	9968
4718592	10240	9936
4849664	7840	5600
4980736	8944	7776
5111808	10736	9232
5242880	7392	6064
5373952	6128	5696
5505024	8176	6256
5636096	7584	7216
5767168	7248	5536
5898240	5920	5008
6029312	4176	3824
6160384	5904	5824
6291456	5552	5456
6422528	3904	3152
6553600	5888	5376
6684672	7584	7088
6815744	4896	4256
6946816	3568	3488
7077888	4752	4256
7208960	2448	2384
7340032	2720	2720
7471104	3392	3392
7602176	2944	2928
7733248	5936	5568
7864320	3968	3824
7995392	2864	2768
8126464	5792	5776
8257536	3504	3488
8388608	5040	4416
8650752	6496	6192
8912896	5456	4976
9175040	4368	4160
9437184	6960	6336
9699328	3808	3440
9961472	5008	4448
10223616	5760	4864
10485760	3712	2672
10747904	6096	5808
11010048	3968	3952
11272192	7488	6640
11534336	4560	4448
11796480	6016	6000
12058624	6496	6208
12320768	5616	5184
12582912	3776	3744
12845056	2560	2544
13107200	3728	3536
13369344	3296	3280
13631488	1968	1920
13893632	4992	4832
14155776	3584	3536
14417920	4400	3664
14680064	5472	5424
14942208	2240	2192
15204352	2192	2192
15466496	2848	2832
15728640	4064	4048
15990784	1936	1936
16252928	1872	1872
16515072	2000	1984
16777216	3728	3696
17301504	3552	3520
17825792	3792	3776
18350080	4272	4256
18874368	2880	2848
19398656	3904	3888
19922944	3184	3152
20447232	4432	4416
20971520	3568	3536
21495808	3984	3936
22020096	3776	3696
22544384	2864	2832
23068672	2160	2016
23592960	3184	3184
24117248	3056	3040
24641536	2144	2144
25165824	2928	2896
25690112	2544	2528
26214400	3040	3040
26738688	3136	3136
27262976	2976	2976
27787264	2224	2176
28311552	1920	1920
28835840	2272	2224
29360128	1904	1904
29884416	1248	1232
30408704	1392	1392
30932992	2768	2768
31457280	1168	1168
31981568	3296	3296
32505856	1696	1680
33030144	2736	2736
33554432	2352	2304
34603008	3088	3088
35651584	2864	2864
36700160	4032	3984
37748736	3008	2992
38797312	2544	2544
39845888	3312	3280
40894464	2160	2128
41943040	2176	2128
42991616	3008	2976
44040192	1632	1600
45088768	2640	2624
46137344	1920	1920
47185920	2096	2064
48234496	1792	1760
49283072	3776	3760
50331648	2592	2512
51380224	1328	1312
52428800	1296	1280
53477376	1008	992
54525952	1136	1136
55574528	2256	2256
56623104	1104	1072
57671680	1072	1072
58720256	1248	1232
59768832	928	912
60817408	1056	1056
61865984	1232	1232
62914560	1152	1152
63963136	1152	1152
65011712	896	864
66060288	1008	992
67108864	1728	1696
69206016	1200	1168
71303168	1104	992
73400320	1072	1040
75497472	1504	1440
77594624	3200	3152
79691776	3328	3216
81788928	1904	1856
83886080	2464	2464
85983232	1472	1472
88080384	752	736
90177536	608	608
92274688	560	512
94371840	352	336
96468992	512	496
98566144	336	320
100663296	448	432
102760448	368	336
104857600	128	112
106954752	688	656
109051904	688	656
111149056	432	416
113246208	368	336
115343360	272	256
117440512	208	192
119537664	112	80
121634816	672	624
123731968	480	480
125829120	1552	1504
127926272	640	640
130023424	176	176
132120576	336	336
134217728	720	704
138412032	832	816
142606336	8880	384
146800640	256	256
150994944	416	400
155189248	688	672
159383552	592	544
163577856	352	336
167772160	160	160
171966464	160	160
176160768	112	112
180355072	368	368
184549376	128	128
188743680	80	64
192937984	48	48
197132288	0	0
201326592	16	16
205520896	48	48
209715200	32	32
213909504	96	80
218103808	160	160
222298112	96	96
226492416	32	32
230686720	96	96
234881024	32	32
239075328	48	48
243269632	0	0
247463936	0	0
251658240	16	16
255852544	0	0
260046848	16	16
264241152	16	16
268435456	112	112
276824064	16	0
285212672	0	0
293601280	0	0
301989888	0	0
310378496	0	0
318767104	0	0
327155712	0	0
335544320	0	0
343932928	0	0
352321536	0	0
360710144	0	0
369098752	0	0
377487360	0	0
385875968	0	0
394264576	0	0
402653184	0	0
411041792	0	0
419430400	0	0
427819008	0	0
436207616	0	0
444596224	0	0
452984832	0	0
461373440	0	0
469762048	0	0
478150656	0	0
486539264	0	0
494927872	0	0
503316480	0	0
511705088	0	0
520093696	0	0
528482304	0	0
536870912	0	0
553648128	0	0
570425344	0	0
587202560	0	0
603979776	0	0
620756992	0	0
637534208	0	0
654311424	0	0
671088640	0	0
687865856	0	0
704643072	0	0
721420288	0	0
738197504	0	0
754974720	0	0
771751936	0	0
788529152	0	0
805306368	0	0
822083584	0	0
838860800	0	0
855638016	0	0
872415232	0	0
889192448	0	0
905969664	0	0
922746880	0	0
939524096	0	0
956301312	0	0
973078528	0	0
989855744	0	0
1006632960	0	0
1023410176	0	0
1040187392	0	0
1056964608	0	0
1073741824	0	0
1107296256	0	0
1140850688	0	0
1174405120	0	0
1207959552	0	0
1241513984	0	0
1275068416	0	0
1308622848	0	0
1342177280	0	0
1375731712	0	0
1409286144	0	0
1442840576	0	0
1476395008	0	0
1509949440	0	0
1543503872	0	0
1577058304	0	0
1610612736	0	0
1644167168	0	0
1677721600	0	0
1711276032	0	0
1744830464	0	0
1778384896	0	0
1811939328	0	0
1845493760	0	0
1879048192	0	0
1912602624	0	0
1946157056	0	0
1979711488	0	0
2013265920	0	0
2046820352	0	0
2080374784	0	0
2113929216	0	0
2147483648	0	0
2214592512	0	0
2281701376	0	0
2348810240	0	0
2415919104	0	0
2483027968	0	0
2550136832	0	0
2617245696	0	0
2684354560	0	0
2751463424	0	0
2818572288	0	0
2885681152	0	0
2952790016	0	0
3019898880	0	0
3087007744	0	0
3154116608	0	0
3221225472	0	0
3288334336	0	0
3355443200	0	0
3422552064	0	0
3489660928	0	0
3556769792	0	0
3623878656	0	0
3690987520	0	0
3758096384	0	0
3825205248	0	0
3892314112	0	0
3959422976	0	0
4026531840	0	0
4093640704	0	0
4160749568	0	0
4227858432	0	0
~~~~~~~~~~Reuse Distance Profiler output end~~~~~~~~~~

DRAM Statistics
 CHANNEL 0
 RQ ROW_BUFFER_HIT:    1341636  ROW_BUFFER_MISS:   15702328
 DBUS AVG_CONGESTED_CYCLE:    3.88863
 WQ ROW_BUFFER_HIT:     468975  ROW_BUFFER_MISS:    1186440  FULL:          0


CPU 0 Branch Prediction Accuracy: 92.6859% MPKI: 6.71037 Average ROB Occupancy at Mispredict: 196.24
Branch type MPKI
BRANCH_DIRECT_JUMP: 4e-06
BRANCH_INDIRECT: 4.46667e-05
BRANCH_CONDITIONAL: 6.71031
BRANCH_DIRECT_CALL: 6.66667e-07
BRANCH_INDIRECT_CALL: 4e-06
BRANCH_RETURN: 4.66667e-06

