
*** ChampSim Multicore Out-of-Order Simulator ***

Warmup Instructions: 500000000
Simulation Instructions: 1500000000
Number of CPUs: 1
Off-chip DRAM Size: 4 GiB Channels: 1 Width: 64-bit Data Rate: 3200 MT/s

VirtualMemory physical capacity: 8588881920 num_ppages: 2096895
VirtualMemory page size: 4096 log2_page_size: 12

CPU 0 runs traces/482.sphinx3-234B.champsimtrace.xz
CPU 0 Bimodal branch predictor
Basic BTB sets: 1024 ways: 8 indirect buffer size: 4096 RAS size: 64
Initializing LRU.
Initializing LRU.
Initializing LRU.
Initializing LRU.
Initializing rdLRU.
Initializing LRU.
Initializing LRU.
Heartbeat CPU 0 instructions: 10000002 cycles: 2599945 heartbeat IPC: 3.84624 cumulative IPC: 3.84624 (Simulation time: 0 hr 0 min 55 sec) 
Heartbeat CPU 0 instructions: 20000000 cycles: 5199717 heartbeat IPC: 3.84649 cumulative IPC: 3.84636 (Simulation time: 0 hr 2 min 0 sec) 
Heartbeat CPU 0 instructions: 30000001 cycles: 7832555 heartbeat IPC: 3.79818 cumulative IPC: 3.83017 (Simulation time: 0 hr 2 min 53 sec) 
Heartbeat CPU 0 instructions: 40000002 cycles: 10433945 heartbeat IPC: 3.8441 cumulative IPC: 3.83364 (Simulation time: 0 hr 3 min 30 sec) 
Heartbeat CPU 0 instructions: 50000001 cycles: 13012265 heartbeat IPC: 3.87849 cumulative IPC: 3.84253 (Simulation time: 0 hr 4 min 29 sec) 
Heartbeat CPU 0 instructions: 60000001 cycles: 15617183 heartbeat IPC: 3.83889 cumulative IPC: 3.84192 (Simulation time: 0 hr 5 min 32 sec) 
Heartbeat CPU 0 instructions: 70000000 cycles: 18183845 heartbeat IPC: 3.89611 cumulative IPC: 3.84957 (Simulation time: 0 hr 6 min 12 sec) 
Heartbeat CPU 0 instructions: 80000004 cycles: 20771682 heartbeat IPC: 3.86423 cumulative IPC: 3.8514 (Simulation time: 0 hr 6 min 53 sec) 
Heartbeat CPU 0 instructions: 90000002 cycles: 23365252 heartbeat IPC: 3.85569 cumulative IPC: 3.85187 (Simulation time: 0 hr 7 min 44 sec) 
Heartbeat CPU 0 instructions: 100000000 cycles: 25945014 heartbeat IPC: 3.87633 cumulative IPC: 3.85431 (Simulation time: 0 hr 8 min 24 sec) 
Heartbeat CPU 0 instructions: 110000000 cycles: 28545505 heartbeat IPC: 3.84543 cumulative IPC: 3.8535 (Simulation time: 0 hr 9 min 0 sec) 
Heartbeat CPU 0 instructions: 120000003 cycles: 31151938 heartbeat IPC: 3.83666 cumulative IPC: 3.85209 (Simulation time: 0 hr 9 min 35 sec) 
Heartbeat CPU 0 instructions: 130000003 cycles: 33762476 heartbeat IPC: 3.83063 cumulative IPC: 3.85043 (Simulation time: 0 hr 10 min 34 sec) 
Heartbeat CPU 0 instructions: 140000002 cycles: 36336755 heartbeat IPC: 3.88458 cumulative IPC: 3.85285 (Simulation time: 0 hr 11 min 28 sec) 
Heartbeat CPU 0 instructions: 150000003 cycles: 38927047 heartbeat IPC: 3.86057 cumulative IPC: 3.85336 (Simulation time: 0 hr 12 min 14 sec) 
Heartbeat CPU 0 instructions: 160000004 cycles: 41519432 heartbeat IPC: 3.85745 cumulative IPC: 3.85362 (Simulation time: 0 hr 13 min 9 sec) 
Heartbeat CPU 0 instructions: 170000001 cycles: 44126733 heartbeat IPC: 3.83538 cumulative IPC: 3.85254 (Simulation time: 0 hr 13 min 55 sec) 
Heartbeat CPU 0 instructions: 180000000 cycles: 46737939 heartbeat IPC: 3.82965 cumulative IPC: 3.85126 (Simulation time: 0 hr 14 min 40 sec) 
Heartbeat CPU 0 instructions: 190000002 cycles: 49328459 heartbeat IPC: 3.86023 cumulative IPC: 3.85173 (Simulation time: 0 hr 15 min 27 sec) 
Heartbeat CPU 0 instructions: 200000001 cycles: 51916094 heartbeat IPC: 3.86453 cumulative IPC: 3.85237 (Simulation time: 0 hr 16 min 15 sec) 
Heartbeat CPU 0 instructions: 210000002 cycles: 54504113 heartbeat IPC: 3.86396 cumulative IPC: 3.85292 (Simulation time: 0 hr 17 min 3 sec) 
Heartbeat CPU 0 instructions: 220000000 cycles: 57124307 heartbeat IPC: 3.81651 cumulative IPC: 3.85125 (Simulation time: 0 hr 17 min 57 sec) 
Heartbeat CPU 0 instructions: 230000001 cycles: 59709631 heartbeat IPC: 3.86799 cumulative IPC: 3.85197 (Simulation time: 0 hr 18 min 46 sec) 
Heartbeat CPU 0 instructions: 240000003 cycles: 62295996 heartbeat IPC: 3.86643 cumulative IPC: 3.85258 (Simulation time: 0 hr 19 min 47 sec) 
Heartbeat CPU 0 instructions: 250000002 cycles: 64882559 heartbeat IPC: 3.86613 cumulative IPC: 3.85312 (Simulation time: 0 hr 20 min 48 sec) 
Heartbeat CPU 0 instructions: 260000004 cycles: 67472644 heartbeat IPC: 3.86088 cumulative IPC: 3.85341 (Simulation time: 0 hr 21 min 50 sec) 
Heartbeat CPU 0 instructions: 270000002 cycles: 70057800 heartbeat IPC: 3.86824 cumulative IPC: 3.85396 (Simulation time: 0 hr 22 min 30 sec) 
Heartbeat CPU 0 instructions: 280000002 cycles: 72659971 heartbeat IPC: 3.84295 cumulative IPC: 3.85357 (Simulation time: 0 hr 23 min 10 sec) 
Heartbeat CPU 0 instructions: 290000002 cycles: 75237496 heartbeat IPC: 3.87969 cumulative IPC: 3.85446 (Simulation time: 0 hr 23 min 51 sec) 
Heartbeat CPU 0 instructions: 300000003 cycles: 77855194 heartbeat IPC: 3.82015 cumulative IPC: 3.85331 (Simulation time: 0 hr 24 min 44 sec) 
Heartbeat CPU 0 instructions: 310000000 cycles: 80465177 heartbeat IPC: 3.83144 cumulative IPC: 3.8526 (Simulation time: 0 hr 25 min 26 sec) 
Heartbeat CPU 0 instructions: 320000000 cycles: 83047030 heartbeat IPC: 3.87319 cumulative IPC: 3.85324 (Simulation time: 0 hr 26 min 14 sec) 
Heartbeat CPU 0 instructions: 330000004 cycles: 85634563 heartbeat IPC: 3.86469 cumulative IPC: 3.85358 (Simulation time: 0 hr 26 min 54 sec) 
Heartbeat CPU 0 instructions: 340000002 cycles: 88228367 heartbeat IPC: 3.85534 cumulative IPC: 3.85364 (Simulation time: 0 hr 27 min 59 sec) 
Heartbeat CPU 0 instructions: 350000003 cycles: 90823224 heartbeat IPC: 3.85378 cumulative IPC: 3.85364 (Simulation time: 0 hr 29 min 0 sec) 
Heartbeat CPU 0 instructions: 360000001 cycles: 93421740 heartbeat IPC: 3.84835 cumulative IPC: 3.85349 (Simulation time: 0 hr 29 min 59 sec) 
Heartbeat CPU 0 instructions: 370000000 cycles: 96023427 heartbeat IPC: 3.84366 cumulative IPC: 3.85323 (Simulation time: 0 hr 30 min 50 sec) 
Heartbeat CPU 0 instructions: 380000001 cycles: 98629392 heartbeat IPC: 3.83735 cumulative IPC: 3.85281 (Simulation time: 0 hr 31 min 28 sec) 
Heartbeat CPU 0 instructions: 390000001 cycles: 101248036 heartbeat IPC: 3.81877 cumulative IPC: 3.85193 (Simulation time: 0 hr 32 min 11 sec) 
Heartbeat CPU 0 instructions: 400000003 cycles: 103818285 heartbeat IPC: 3.89067 cumulative IPC: 3.85289 (Simulation time: 0 hr 33 min 15 sec) 
Heartbeat CPU 0 instructions: 410000001 cycles: 106427020 heartbeat IPC: 3.83327 cumulative IPC: 3.85241 (Simulation time: 0 hr 34 min 0 sec) 
Heartbeat CPU 0 instructions: 420000000 cycles: 109069143 heartbeat IPC: 3.78483 cumulative IPC: 3.85077 (Simulation time: 0 hr 34 min 48 sec) 
Heartbeat CPU 0 instructions: 430000002 cycles: 111685716 heartbeat IPC: 3.82179 cumulative IPC: 3.85009 (Simulation time: 0 hr 35 min 51 sec) 
Heartbeat CPU 0 instructions: 440000004 cycles: 114269567 heartbeat IPC: 3.87019 cumulative IPC: 3.85054 (Simulation time: 0 hr 36 min 46 sec) 
Heartbeat CPU 0 instructions: 450000004 cycles: 116886699 heartbeat IPC: 3.82098 cumulative IPC: 3.84988 (Simulation time: 0 hr 37 min 48 sec) 
Heartbeat CPU 0 instructions: 460000001 cycles: 119506662 heartbeat IPC: 3.81685 cumulative IPC: 3.84916 (Simulation time: 0 hr 38 min 53 sec) 
Heartbeat CPU 0 instructions: 470000002 cycles: 122141203 heartbeat IPC: 3.79573 cumulative IPC: 3.84801 (Simulation time: 0 hr 40 min 0 sec) 
Heartbeat CPU 0 instructions: 480000002 cycles: 124712105 heartbeat IPC: 3.88969 cumulative IPC: 3.84886 (Simulation time: 0 hr 41 min 5 sec) 
Heartbeat CPU 0 instructions: 490000004 cycles: 127335793 heartbeat IPC: 3.81143 cumulative IPC: 3.84809 (Simulation time: 0 hr 42 min 9 sec) 
Heartbeat CPU 0 instructions: 500000002 cycles: 129967507 heartbeat IPC: 3.7998 cumulative IPC: 3.84712 (Simulation time: 0 hr 42 min 54 sec) 

Warmup complete CPU 0 instructions: 500000002 cycles: 129967507 (Simulation time: 0 hr 42 min 54 sec) 

Heartbeat CPU 0 instructions: 510000001 cycles: 144980291 heartbeat IPC: 0.666099 cumulative IPC: 0.666099 (Simulation time: 0 hr 44 min 57 sec) 
Heartbeat CPU 0 instructions: 520000001 cycles: 159871360 heartbeat IPC: 0.671543 cumulative IPC: 0.66881 (Simulation time: 0 hr 46 min 42 sec) 
Heartbeat CPU 0 instructions: 530000004 cycles: 174858031 heartbeat IPC: 0.66726 cumulative IPC: 0.668293 (Simulation time: 0 hr 48 min 26 sec) 
Heartbeat CPU 0 instructions: 540000003 cycles: 189866865 heartbeat IPC: 0.666274 cumulative IPC: 0.667787 (Simulation time: 0 hr 50 min 34 sec) 
Heartbeat CPU 0 instructions: 550000000 cycles: 204806741 heartbeat IPC: 0.669349 cumulative IPC: 0.668099 (Simulation time: 0 hr 52 min 1 sec) 
Heartbeat CPU 0 instructions: 560000001 cycles: 219906151 heartbeat IPC: 0.662278 cumulative IPC: 0.667121 (Simulation time: 0 hr 53 min 17 sec) 
Heartbeat CPU 0 instructions: 570000002 cycles: 234810446 heartbeat IPC: 0.670948 cumulative IPC: 0.667665 (Simulation time: 0 hr 54 min 34 sec) 
Heartbeat CPU 0 instructions: 580000000 cycles: 249738938 heartbeat IPC: 0.66986 cumulative IPC: 0.667939 (Simulation time: 0 hr 55 min 50 sec) 
Heartbeat CPU 0 instructions: 590000004 cycles: 265042609 heartbeat IPC: 0.653438 cumulative IPC: 0.666296 (Simulation time: 0 hr 57 min 25 sec) 
Heartbeat CPU 0 instructions: 600000001 cycles: 279747146 heartbeat IPC: 0.680062 cumulative IPC: 0.667647 (Simulation time: 0 hr 59 min 14 sec) 
Heartbeat CPU 0 instructions: 610000002 cycles: 293796656 heartbeat IPC: 0.711769 cumulative IPC: 0.671431 (Simulation time: 1 hr 0 min 27 sec) 
Heartbeat CPU 0 instructions: 620000004 cycles: 308888667 heartbeat IPC: 0.662602 cumulative IPC: 0.670686 (Simulation time: 1 hr 1 min 44 sec) 
Heartbeat CPU 0 instructions: 630000001 cycles: 323834070 heartbeat IPC: 0.669102 cumulative IPC: 0.670564 (Simulation time: 1 hr 3 min 1 sec) 
Heartbeat CPU 0 instructions: 640000000 cycles: 338877864 heartbeat IPC: 0.664726 cumulative IPC: 0.670144 (Simulation time: 1 hr 4 min 52 sec) 
Heartbeat CPU 0 instructions: 650000002 cycles: 353968774 heartbeat IPC: 0.662651 cumulative IPC: 0.669639 (Simulation time: 1 hr 6 min 54 sec) 
Heartbeat CPU 0 instructions: 660000001 cycles: 368905942 heartbeat IPC: 0.669471 cumulative IPC: 0.669629 (Simulation time: 1 hr 9 min 3 sec) 
Heartbeat CPU 0 instructions: 670000001 cycles: 383833176 heartbeat IPC: 0.669916 cumulative IPC: 0.669645 (Simulation time: 1 hr 10 min 23 sec) 
Heartbeat CPU 0 instructions: 680000003 cycles: 399429546 heartbeat IPC: 0.641175 cumulative IPC: 0.667998 (Simulation time: 1 hr 12 min 8 sec) 
Heartbeat CPU 0 instructions: 690000000 cycles: 413756446 heartbeat IPC: 0.697987 cumulative IPC: 0.669512 (Simulation time: 1 hr 13 min 46 sec) 
Heartbeat CPU 0 instructions: 700000004 cycles: 428502036 heartbeat IPC: 0.678169 cumulative IPC: 0.669939 (Simulation time: 1 hr 15 min 4 sec) 
Heartbeat CPU 0 instructions: 710000000 cycles: 443156967 heartbeat IPC: 0.682364 cumulative IPC: 0.670521 (Simulation time: 1 hr 16 min 22 sec) 
Heartbeat CPU 0 instructions: 720000003 cycles: 458691509 heartbeat IPC: 0.643727 cumulative IPC: 0.669254 (Simulation time: 1 hr 17 min 41 sec) 
Heartbeat CPU 0 instructions: 730000004 cycles: 472952036 heartbeat IPC: 0.701236 cumulative IPC: 0.670584 (Simulation time: 1 hr 18 min 59 sec) 
Heartbeat CPU 0 instructions: 740000003 cycles: 487545602 heartbeat IPC: 0.685233 cumulative IPC: 0.671182 (Simulation time: 1 hr 21 min 3 sec) 
Heartbeat CPU 0 instructions: 750000002 cycles: 502069867 heartbeat IPC: 0.688503 cumulative IPC: 0.671858 (Simulation time: 1 hr 23 min 5 sec) 
Heartbeat CPU 0 instructions: 760000001 cycles: 516580304 heartbeat IPC: 0.689159 cumulative IPC: 0.672507 (Simulation time: 1 hr 24 min 21 sec) 
Heartbeat CPU 0 instructions: 770000000 cycles: 530022798 heartbeat IPC: 0.743909 cumulative IPC: 0.674907 (Simulation time: 1 hr 25 min 35 sec) 
Heartbeat CPU 0 instructions: 780000002 cycles: 544370142 heartbeat IPC: 0.696993 cumulative IPC: 0.675671 (Simulation time: 1 hr 26 min 53 sec) 
Heartbeat CPU 0 instructions: 790000002 cycles: 558698483 heartbeat IPC: 0.697918 cumulative IPC: 0.676415 (Simulation time: 1 hr 28 min 10 sec) 
Heartbeat CPU 0 instructions: 800000001 cycles: 573033849 heartbeat IPC: 0.697575 cumulative IPC: 0.6771 (Simulation time: 1 hr 29 min 29 sec) 
Heartbeat CPU 0 instructions: 810000000 cycles: 587326830 heartbeat IPC: 0.699644 cumulative IPC: 0.677804 (Simulation time: 1 hr 31 min 0 sec) 
Heartbeat CPU 0 instructions: 820000002 cycles: 601559841 heartbeat IPC: 0.702592 cumulative IPC: 0.678552 (Simulation time: 1 hr 32 min 31 sec) 
Heartbeat CPU 0 instructions: 830000000 cycles: 615778246 heartbeat IPC: 0.703314 cumulative IPC: 0.679277 (Simulation time: 1 hr 33 min 49 sec) 
Heartbeat CPU 0 instructions: 840000002 cycles: 629666573 heartbeat IPC: 0.720029 cumulative IPC: 0.680409 (Simulation time: 1 hr 36 min 11 sec) 
Heartbeat CPU 0 instructions: 850000001 cycles: 643166419 heartbeat IPC: 0.740749 cumulative IPC: 0.681997 (Simulation time: 1 hr 38 min 20 sec) 
Heartbeat CPU 0 instructions: 860000001 cycles: 657316480 heartbeat IPC: 0.706711 cumulative IPC: 0.68266 (Simulation time: 1 hr 39 min 39 sec) 
Heartbeat CPU 0 instructions: 870000001 cycles: 671509118 heartbeat IPC: 0.704591 cumulative IPC: 0.683235 (Simulation time: 1 hr 40 min 57 sec) 
Heartbeat CPU 0 instructions: 880000001 cycles: 684756502 heartbeat IPC: 0.754866 cumulative IPC: 0.684945 (Simulation time: 1 hr 42 min 11 sec) 
Heartbeat CPU 0 instructions: 890000001 cycles: 697965924 heartbeat IPC: 0.757035 cumulative IPC: 0.686622 (Simulation time: 1 hr 43 min 29 sec) 
Heartbeat CPU 0 instructions: 900000001 cycles: 712044289 heartbeat IPC: 0.71031 cumulative IPC: 0.687195 (Simulation time: 1 hr 44 min 58 sec) 
Heartbeat CPU 0 instructions: 910000001 cycles: 726228674 heartbeat IPC: 0.705001 cumulative IPC: 0.687618 (Simulation time: 1 hr 46 min 31 sec) 
Heartbeat CPU 0 instructions: 920000002 cycles: 740379111 heartbeat IPC: 0.706692 cumulative IPC: 0.68806 (Simulation time: 1 hr 48 min 0 sec) 
Heartbeat CPU 0 instructions: 930000003 cycles: 753600396 heartbeat IPC: 0.756356 cumulative IPC: 0.689508 (Simulation time: 1 hr 49 min 15 sec) 
Heartbeat CPU 0 instructions: 940000001 cycles: 767725465 heartbeat IPC: 0.707961 cumulative IPC: 0.689917 (Simulation time: 1 hr 50 min 33 sec) 
Heartbeat CPU 0 instructions: 950000001 cycles: 781869770 heartbeat IPC: 0.706998 cumulative IPC: 0.690288 (Simulation time: 1 hr 51 min 56 sec) 
Heartbeat CPU 0 instructions: 960000002 cycles: 795536964 heartbeat IPC: 0.731679 cumulative IPC: 0.691137 (Simulation time: 1 hr 53 min 21 sec) 
Heartbeat CPU 0 instructions: 970000003 cycles: 809148089 heartbeat IPC: 0.734693 cumulative IPC: 0.69201 (Simulation time: 1 hr 54 min 39 sec) 
Heartbeat CPU 0 instructions: 980000000 cycles: 822240659 heartbeat IPC: 0.763792 cumulative IPC: 0.693368 (Simulation time: 1 hr 56 min 7 sec) 
Heartbeat CPU 0 instructions: 990000002 cycles: 835862611 heartbeat IPC: 0.734109 cumulative IPC: 0.694154 (Simulation time: 1 hr 57 min 52 sec) 
Heartbeat CPU 0 instructions: 1000000000 cycles: 849450607 heartbeat IPC: 0.735944 cumulative IPC: 0.694943 (Simulation time: 1 hr 59 min 16 sec) 
Heartbeat CPU 0 instructions: 1010000000 cycles: 863598551 heartbeat IPC: 0.706816 cumulative IPC: 0.695172 (Simulation time: 2 hr 0 min 41 sec) 
Heartbeat CPU 0 instructions: 1020000000 cycles: 877820393 heartbeat IPC: 0.703144 cumulative IPC: 0.695324 (Simulation time: 2 hr 2 min 57 sec) 
Heartbeat CPU 0 instructions: 1030000001 cycles: 890994885 heartbeat IPC: 0.759043 cumulative IPC: 0.696427 (Simulation time: 2 hr 5 min 19 sec) 
Heartbeat CPU 0 instructions: 1040000001 cycles: 905092638 heartbeat IPC: 0.709333 cumulative IPC: 0.696662 (Simulation time: 2 hr 6 min 56 sec) 
Heartbeat CPU 0 instructions: 1050000004 cycles: 919271156 heartbeat IPC: 0.705293 cumulative IPC: 0.696817 (Simulation time: 2 hr 8 min 14 sec) 
Heartbeat CPU 0 instructions: 1060000002 cycles: 933160376 heartbeat IPC: 0.719983 cumulative IPC: 0.697217 (Simulation time: 2 hr 9 min 36 sec) 
Heartbeat CPU 0 instructions: 1070000004 cycles: 946916025 heartbeat IPC: 0.726974 cumulative IPC: 0.697718 (Simulation time: 2 hr 11 min 49 sec) 
Heartbeat CPU 0 instructions: 1080000002 cycles: 960080104 heartbeat IPC: 0.759643 cumulative IPC: 0.6987 (Simulation time: 2 hr 13 min 29 sec) 
Heartbeat CPU 0 instructions: 1090000000 cycles: 974437191 heartbeat IPC: 0.69652 cumulative IPC: 0.698663 (Simulation time: 2 hr 14 min 47 sec) 
Heartbeat CPU 0 instructions: 1100000001 cycles: 988185143 heartbeat IPC: 0.727381 cumulative IPC: 0.699123 (Simulation time: 2 hr 16 min 9 sec) 
Heartbeat CPU 0 instructions: 1110000003 cycles: 1002645131 heartbeat IPC: 0.691564 cumulative IPC: 0.698998 (Simulation time: 2 hr 17 min 37 sec) 
Heartbeat CPU 0 instructions: 1120000004 cycles: 1017195097 heartbeat IPC: 0.687287 cumulative IPC: 0.698806 (Simulation time: 2 hr 19 min 2 sec) 
Heartbeat CPU 0 instructions: 1130000002 cycles: 1031782262 heartbeat IPC: 0.685534 cumulative IPC: 0.698591 (Simulation time: 2 hr 20 min 29 sec) 
Heartbeat CPU 0 instructions: 1140000002 cycles: 1046356372 heartbeat IPC: 0.686148 cumulative IPC: 0.698393 (Simulation time: 2 hr 21 min 50 sec) 
Heartbeat CPU 0 instructions: 1150000002 cycles: 1060929396 heartbeat IPC: 0.686199 cumulative IPC: 0.698203 (Simulation time: 2 hr 23 min 29 sec) 
Heartbeat CPU 0 instructions: 1160000003 cycles: 1075428400 heartbeat IPC: 0.689703 cumulative IPC: 0.698072 (Simulation time: 2 hr 24 min 45 sec) 
Heartbeat CPU 0 instructions: 1170000003 cycles: 1090223525 heartbeat IPC: 0.675898 cumulative IPC: 0.697731 (Simulation time: 2 hr 26 min 2 sec) 
Heartbeat CPU 0 instructions: 1180000000 cycles: 1104739917 heartbeat IPC: 0.688876 cumulative IPC: 0.697599 (Simulation time: 2 hr 27 min 18 sec) 
Heartbeat CPU 0 instructions: 1190000004 cycles: 1118582451 heartbeat IPC: 0.722411 cumulative IPC: 0.697946 (Simulation time: 2 hr 28 min 34 sec) 
Heartbeat CPU 0 instructions: 1200000002 cycles: 1133016511 heartbeat IPC: 0.692806 cumulative IPC: 0.697872 (Simulation time: 2 hr 29 min 52 sec) 
Heartbeat CPU 0 instructions: 1210000000 cycles: 1147442124 heartbeat IPC: 0.693211 cumulative IPC: 0.697806 (Simulation time: 2 hr 31 min 8 sec) 
Heartbeat CPU 0 instructions: 1220000002 cycles: 1161952893 heartbeat IPC: 0.689143 cumulative IPC: 0.697684 (Simulation time: 2 hr 32 min 23 sec) 
Heartbeat CPU 0 instructions: 1230000003 cycles: 1175761858 heartbeat IPC: 0.724167 cumulative IPC: 0.698034 (Simulation time: 2 hr 33 min 37 sec) 
Heartbeat CPU 0 instructions: 1240000000 cycles: 1189572428 heartbeat IPC: 0.724083 cumulative IPC: 0.698373 (Simulation time: 2 hr 35 min 28 sec) 
Heartbeat CPU 0 instructions: 1250000000 cycles: 1203828217 heartbeat IPC: 0.701469 cumulative IPC: 0.698415 (Simulation time: 2 hr 37 min 43 sec) 
Heartbeat CPU 0 instructions: 1260000002 cycles: 1217991858 heartbeat IPC: 0.706033 cumulative IPC: 0.698514 (Simulation time: 2 hr 39 min 27 sec) 
Heartbeat CPU 0 instructions: 1270000000 cycles: 1232265954 heartbeat IPC: 0.70057 cumulative IPC: 0.69854 (Simulation time: 2 hr 40 min 48 sec) 
Heartbeat CPU 0 instructions: 1280000004 cycles: 1245968737 heartbeat IPC: 0.729779 cumulative IPC: 0.698924 (Simulation time: 2 hr 42 min 19 sec) 
Heartbeat CPU 0 instructions: 1290000002 cycles: 1259945576 heartbeat IPC: 0.715469 cumulative IPC: 0.699129 (Simulation time: 2 hr 43 min 37 sec) 
Heartbeat CPU 0 instructions: 1300000000 cycles: 1273368692 heartbeat IPC: 0.744983 cumulative IPC: 0.699667 (Simulation time: 2 hr 45 min 6 sec) 
Heartbeat CPU 0 instructions: 1310000003 cycles: 1287794992 heartbeat IPC: 0.693179 cumulative IPC: 0.699586 (Simulation time: 2 hr 47 min 20 sec) 
Heartbeat CPU 0 instructions: 1320000001 cycles: 1302104921 heartbeat IPC: 0.698815 cumulative IPC: 0.699577 (Simulation time: 2 hr 48 min 55 sec) 
Heartbeat CPU 0 instructions: 1330000004 cycles: 1316363505 heartbeat IPC: 0.701332 cumulative IPC: 0.699598 (Simulation time: 2 hr 50 min 11 sec) 
Heartbeat CPU 0 instructions: 1340000000 cycles: 1330420536 heartbeat IPC: 0.711388 cumulative IPC: 0.699736 (Simulation time: 2 hr 51 min 26 sec) 
Heartbeat CPU 0 instructions: 1350000004 cycles: 1343805827 heartbeat IPC: 0.747089 cumulative IPC: 0.700258 (Simulation time: 2 hr 52 min 40 sec) 
Heartbeat CPU 0 instructions: 1360000002 cycles: 1357971572 heartbeat IPC: 0.705928 cumulative IPC: 0.700323 (Simulation time: 2 hr 53 min 57 sec) 
Heartbeat CPU 0 instructions: 1370000003 cycles: 1372231724 heartbeat IPC: 0.701255 cumulative IPC: 0.700334 (Simulation time: 2 hr 55 min 25 sec) 
Heartbeat CPU 0 instructions: 1380000002 cycles: 1385768821 heartbeat IPC: 0.738711 cumulative IPC: 0.700748 (Simulation time: 2 hr 56 min 41 sec) 
Heartbeat CPU 0 instructions: 1390000000 cycles: 1399743941 heartbeat IPC: 0.715557 cumulative IPC: 0.700911 (Simulation time: 2 hr 57 min 58 sec) 
Heartbeat CPU 0 instructions: 1400000002 cycles: 1412958636 heartbeat IPC: 0.756733 cumulative IPC: 0.701486 (Simulation time: 2 hr 59 min 22 sec) 
Heartbeat CPU 0 instructions: 1410000000 cycles: 1427194813 heartbeat IPC: 0.702436 cumulative IPC: 0.701496 (Simulation time: 3 hr 0 min 37 sec) 
Heartbeat CPU 0 instructions: 1420000000 cycles: 1441543793 heartbeat IPC: 0.696914 cumulative IPC: 0.701446 (Simulation time: 3 hr 1 min 52 sec) 
Heartbeat CPU 0 instructions: 1430000000 cycles: 1455199167 heartbeat IPC: 0.732312 cumulative IPC: 0.701764 (Simulation time: 3 hr 3 min 6 sec) 
Heartbeat CPU 0 instructions: 1440000001 cycles: 1469117626 heartbeat IPC: 0.71847 cumulative IPC: 0.701938 (Simulation time: 3 hr 4 min 21 sec) 
Heartbeat CPU 0 instructions: 1450000004 cycles: 1483386467 heartbeat IPC: 0.700828 cumulative IPC: 0.701926 (Simulation time: 3 hr 5 min 36 sec) 
Heartbeat CPU 0 instructions: 1460000002 cycles: 1497640747 heartbeat IPC: 0.701544 cumulative IPC: 0.701922 (Simulation time: 3 hr 6 min 52 sec) 
Heartbeat CPU 0 instructions: 1470000004 cycles: 1511946376 heartbeat IPC: 0.699026 cumulative IPC: 0.701892 (Simulation time: 3 hr 8 min 7 sec) 
Heartbeat CPU 0 instructions: 1480000000 cycles: 1526306715 heartbeat IPC: 0.696362 cumulative IPC: 0.701835 (Simulation time: 3 hr 9 min 24 sec) 
Heartbeat CPU 0 instructions: 1490000004 cycles: 1540739044 heartbeat IPC: 0.692889 cumulative IPC: 0.701744 (Simulation time: 3 hr 10 min 42 sec) 
Heartbeat CPU 0 instructions: 1500000000 cycles: 1555159485 heartbeat IPC: 0.69346 cumulative IPC: 0.70166 (Simulation time: 3 hr 11 min 58 sec) 
Heartbeat CPU 0 instructions: 1510000004 cycles: 1569655517 heartbeat IPC: 0.689844 cumulative IPC: 0.701541 (Simulation time: 3 hr 13 min 15 sec) 
Heartbeat CPU 0 instructions: 1520000004 cycles: 1583344181 heartbeat IPC: 0.730531 cumulative IPC: 0.701814 (Simulation time: 3 hr 14 min 28 sec) 
Heartbeat CPU 0 instructions: 1530000000 cycles: 1598389822 heartbeat IPC: 0.664644 cumulative IPC: 0.701433 (Simulation time: 3 hr 15 min 44 sec) 
Heartbeat CPU 0 instructions: 1540000003 cycles: 1613912784 heartbeat IPC: 0.644207 cumulative IPC: 0.700834 (Simulation time: 3 hr 17 min 3 sec) 
Heartbeat CPU 0 instructions: 1550000000 cycles: 1628793325 heartbeat IPC: 0.672018 cumulative IPC: 0.700548 (Simulation time: 3 hr 18 min 19 sec) 
Heartbeat CPU 0 instructions: 1560000000 cycles: 1643634027 heartbeat IPC: 0.673823 cumulative IPC: 0.700286 (Simulation time: 3 hr 19 min 35 sec) 
Heartbeat CPU 0 instructions: 1570000003 cycles: 1658811918 heartbeat IPC: 0.658853 cumulative IPC: 0.699875 (Simulation time: 3 hr 20 min 53 sec) 
Heartbeat CPU 0 instructions: 1580000004 cycles: 1674713185 heartbeat IPC: 0.628881 cumulative IPC: 0.699144 (Simulation time: 3 hr 22 min 11 sec) 
Heartbeat CPU 0 instructions: 1590000001 cycles: 1689673325 heartbeat IPC: 0.668443 cumulative IPC: 0.69885 (Simulation time: 3 hr 23 min 28 sec) 
Heartbeat CPU 0 instructions: 1600000002 cycles: 1704778786 heartbeat IPC: 0.662012 cumulative IPC: 0.698496 (Simulation time: 3 hr 24 min 45 sec) 
Heartbeat CPU 0 instructions: 1610000000 cycles: 1719778822 heartbeat IPC: 0.666665 cumulative IPC: 0.698196 (Simulation time: 3 hr 26 min 2 sec) 
Heartbeat CPU 0 instructions: 1620000001 cycles: 1735170871 heartbeat IPC: 0.649686 cumulative IPC: 0.697731 (Simulation time: 3 hr 27 min 20 sec) 
Heartbeat CPU 0 instructions: 1630000001 cycles: 1750406497 heartbeat IPC: 0.656356 cumulative IPC: 0.697342 (Simulation time: 3 hr 28 min 37 sec) 
Heartbeat CPU 0 instructions: 1640000003 cycles: 1764011435 heartbeat IPC: 0.735027 cumulative IPC: 0.697656 (Simulation time: 3 hr 29 min 50 sec) 
Heartbeat CPU 0 instructions: 1650000003 cycles: 1779322598 heartbeat IPC: 0.653118 cumulative IPC: 0.697242 (Simulation time: 3 hr 31 min 8 sec) 
Heartbeat CPU 0 instructions: 1660000003 cycles: 1793636772 heartbeat IPC: 0.698608 cumulative IPC: 0.697254 (Simulation time: 3 hr 32 min 22 sec) 
Heartbeat CPU 0 instructions: 1670000001 cycles: 1808001098 heartbeat IPC: 0.696169 cumulative IPC: 0.697245 (Simulation time: 3 hr 33 min 40 sec) 
Heartbeat CPU 0 instructions: 1680000002 cycles: 1821948452 heartbeat IPC: 0.716982 cumulative IPC: 0.697407 (Simulation time: 3 hr 34 min 54 sec) 
Heartbeat CPU 0 instructions: 1690000003 cycles: 1835792802 heartbeat IPC: 0.722316 cumulative IPC: 0.69761 (Simulation time: 3 hr 36 min 8 sec) 
Heartbeat CPU 0 instructions: 1700000003 cycles: 1849727197 heartbeat IPC: 0.717649 cumulative IPC: 0.697772 (Simulation time: 3 hr 37 min 23 sec) 
Heartbeat CPU 0 instructions: 1710000004 cycles: 1863973669 heartbeat IPC: 0.701928 cumulative IPC: 0.697806 (Simulation time: 3 hr 38 min 38 sec) 
Heartbeat CPU 0 instructions: 1720000002 cycles: 1878412566 heartbeat IPC: 0.692574 cumulative IPC: 0.697763 (Simulation time: 3 hr 39 min 54 sec) 
Heartbeat CPU 0 instructions: 1730000002 cycles: 1893252704 heartbeat IPC: 0.673848 cumulative IPC: 0.697562 (Simulation time: 3 hr 41 min 11 sec) 
Heartbeat CPU 0 instructions: 1740000001 cycles: 1906691535 heartbeat IPC: 0.744112 cumulative IPC: 0.697914 (Simulation time: 3 hr 42 min 26 sec) 
Heartbeat CPU 0 instructions: 1750000001 cycles: 1921637408 heartbeat IPC: 0.669081 cumulative IPC: 0.697673 (Simulation time: 3 hr 43 min 44 sec) 
Heartbeat CPU 0 instructions: 1760000002 cycles: 1934842512 heartbeat IPC: 0.757283 cumulative IPC: 0.698109 (Simulation time: 3 hr 44 min 56 sec) 
Heartbeat CPU 0 instructions: 1770000001 cycles: 1948856186 heartbeat IPC: 0.713589 cumulative IPC: 0.698229 (Simulation time: 3 hr 46 min 11 sec) 
Heartbeat CPU 0 instructions: 1780000003 cycles: 1963683887 heartbeat IPC: 0.674414 cumulative IPC: 0.698036 (Simulation time: 3 hr 47 min 29 sec) 
Heartbeat CPU 0 instructions: 1790000001 cycles: 1978224977 heartbeat IPC: 0.687706 cumulative IPC: 0.697955 (Simulation time: 3 hr 48 min 44 sec) 
Heartbeat CPU 0 instructions: 1800000000 cycles: 1993293166 heartbeat IPC: 0.66365 cumulative IPC: 0.697677 (Simulation time: 3 hr 50 min 2 sec) 
Heartbeat CPU 0 instructions: 1810000000 cycles: 2007876297 heartbeat IPC: 0.685724 cumulative IPC: 0.697584 (Simulation time: 3 hr 51 min 19 sec) 
Heartbeat CPU 0 instructions: 1820000004 cycles: 2022189961 heartbeat IPC: 0.698633 cumulative IPC: 0.697592 (Simulation time: 3 hr 52 min 34 sec) 
Heartbeat CPU 0 instructions: 1830000001 cycles: 2037130261 heartbeat IPC: 0.66933 cumulative IPC: 0.697371 (Simulation time: 3 hr 53 min 51 sec) 
Heartbeat CPU 0 instructions: 1840000001 cycles: 2051712138 heartbeat IPC: 0.685783 cumulative IPC: 0.697283 (Simulation time: 3 hr 55 min 7 sec) 
Heartbeat CPU 0 instructions: 1850000004 cycles: 2065395807 heartbeat IPC: 0.730798 cumulative IPC: 0.69752 (Simulation time: 3 hr 56 min 19 sec) 
Heartbeat CPU 0 instructions: 1860000003 cycles: 2080427383 heartbeat IPC: 0.665266 cumulative IPC: 0.697271 (Simulation time: 3 hr 57 min 36 sec) 
Heartbeat CPU 0 instructions: 1870000003 cycles: 2094999322 heartbeat IPC: 0.68625 cumulative IPC: 0.69719 (Simulation time: 3 hr 58 min 51 sec) 
Heartbeat CPU 0 instructions: 1880000000 cycles: 2109626617 heartbeat IPC: 0.683653 cumulative IPC: 0.69709 (Simulation time: 4 hr 0 min 6 sec) 
Heartbeat CPU 0 instructions: 1890000001 cycles: 2124306833 heartbeat IPC: 0.681189 cumulative IPC: 0.696973 (Simulation time: 4 hr 1 min 22 sec) 
Heartbeat CPU 0 instructions: 1900000001 cycles: 2139273141 heartbeat IPC: 0.668167 cumulative IPC: 0.696758 (Simulation time: 4 hr 2 min 38 sec) 
Heartbeat CPU 0 instructions: 1910000002 cycles: 2154064804 heartbeat IPC: 0.676057 cumulative IPC: 0.696607 (Simulation time: 4 hr 3 min 55 sec) 
Heartbeat CPU 0 instructions: 1920000000 cycles: 2168589953 heartbeat IPC: 0.688461 cumulative IPC: 0.696549 (Simulation time: 4 hr 5 min 10 sec) 
Heartbeat CPU 0 instructions: 1930000001 cycles: 2183101836 heartbeat IPC: 0.68909 cumulative IPC: 0.696496 (Simulation time: 4 hr 6 min 25 sec) 
Heartbeat CPU 0 instructions: 1940000001 cycles: 2197570866 heartbeat IPC: 0.691131 cumulative IPC: 0.696459 (Simulation time: 4 hr 7 min 40 sec) 
Heartbeat CPU 0 instructions: 1950000001 cycles: 2211939770 heartbeat IPC: 0.695947 cumulative IPC: 0.696455 (Simulation time: 4 hr 8 min 54 sec) 
Heartbeat CPU 0 instructions: 1960000001 cycles: 2226477546 heartbeat IPC: 0.687863 cumulative IPC: 0.696395 (Simulation time: 4 hr 10 min 9 sec) 
Heartbeat CPU 0 instructions: 1970000000 cycles: 2240682534 heartbeat IPC: 0.703978 cumulative IPC: 0.696446 (Simulation time: 4 hr 11 min 24 sec) 
Heartbeat CPU 0 instructions: 1980000001 cycles: 2254813726 heartbeat IPC: 0.707654 cumulative IPC: 0.696521 (Simulation time: 4 hr 12 min 39 sec) 
Heartbeat CPU 0 instructions: 1990000002 cycles: 2268961378 heartbeat IPC: 0.706831 cumulative IPC: 0.696589 (Simulation time: 4 hr 13 min 53 sec) 
*** Reached end of trace: traces/482.sphinx3-234B.champsimtrace.xz
Heartbeat CPU 0 instructions: 2000000003 cycles: 2282379538 heartbeat IPC: 0.745259 cumulative IPC: 0.696893 (Simulation time: 4 hr 15 min 6 sec) 
Finished CPU 0 instructions: 1500000001 cycles: 2152412031 cumulative IPC: 0.696893 (Simulation time: 4 hr 15 min 6 sec) 

ChampSim completed all CPUs

Region of Interest Statistics

CPU 0 cumulative IPC: 0.696893 instructions: 1500000001 cycles: 2152412031
cpu0_DTLB TOTAL     ACCESS:  270455308  HIT:  268188430  MISS:    2266878
cpu0_DTLB LOAD      ACCESS:  253355794  HIT:  251193331  MISS:    2162463
cpu0_DTLB RFO       ACCESS:   17099514  HIT:   16995099  MISS:     104415
cpu0_DTLB PREFETCH  ACCESS:          0  HIT:          0  MISS:          0
cpu0_DTLB WRITEBACK ACCESS:          0  HIT:          0  MISS:          0
cpu0_DTLB TRANSLATION ACCESS:          0  HIT:          0  MISS:          0
cpu0_DTLB PREFETCH  REQUESTED:          0  ISSUED:          0  USEFUL:          0  USELESS:          0
cpu0_DTLB AVERAGE MISS LATENCY: 11.1007 cycles
cpu0_ITLB TOTAL     ACCESS:  127864058  HIT:  127864058  MISS:          0
cpu0_ITLB LOAD      ACCESS:  127864058  HIT:  127864058  MISS:          0
cpu0_ITLB RFO       ACCESS:          0  HIT:          0  MISS:          0
cpu0_ITLB PREFETCH  ACCESS:          0  HIT:          0  MISS:          0
cpu0_ITLB WRITEBACK ACCESS:          0  HIT:          0  MISS:          0
cpu0_ITLB TRANSLATION ACCESS:          0  HIT:          0  MISS:          0
cpu0_ITLB PREFETCH  REQUESTED:          0  ISSUED:          0  USEFUL:          0  USELESS:          0
cpu0_ITLB AVERAGE MISS LATENCY: -nan cycles
cpu0_L1I TOTAL     ACCESS:    1515141  HIT:    1514326  MISS:        815
cpu0_L1I LOAD      ACCESS:    1515141  HIT:    1514326  MISS:        815
cpu0_L1I RFO       ACCESS:          0  HIT:          0  MISS:          0
cpu0_L1I PREFETCH  ACCESS:          0  HIT:          0  MISS:          0
cpu0_L1I WRITEBACK ACCESS:          0  HIT:          0  MISS:          0
cpu0_L1I TRANSLATION ACCESS:          0  HIT:          0  MISS:          0
cpu0_L1I PREFETCH  REQUESTED:          0  ISSUED:          0  USEFUL:          0  USELESS:          0
cpu0_L1I AVERAGE MISS LATENCY: 207.32 cycles
cpu0_STLB TOTAL     ACCESS:    2266878  HIT:    1733999  MISS:     532879
cpu0_STLB LOAD      ACCESS:    2162463  HIT:    1637942  MISS:     524521
cpu0_STLB RFO       ACCESS:     104415  HIT:      96057  MISS:       8358
cpu0_STLB PREFETCH  ACCESS:          0  HIT:          0  MISS:          0
cpu0_STLB WRITEBACK ACCESS:          0  HIT:          0  MISS:          0
cpu0_STLB TRANSLATION ACCESS:          0  HIT:          0  MISS:          0
cpu0_STLB PREFETCH  REQUESTED:          0  ISSUED:          0  USEFUL:          0  USELESS:          0
cpu0_STLB AVERAGE MISS LATENCY: 8.79851 cycles
cpu0_L1D TOTAL     ACCESS:  173256564  HIT:  150707769  MISS:   22548795
cpu0_L1D LOAD      ACCESS:  145139492  HIT:  123397574  MISS:   21741918
cpu0_L1D RFO       ACCESS:   27598894  HIT:   26801723  MISS:     797171
cpu0_L1D PREFETCH  ACCESS:          0  HIT:          0  MISS:          0
cpu0_L1D WRITEBACK ACCESS:          0  HIT:          0  MISS:          0
cpu0_L1D TRANSLATION ACCESS:     518178  HIT:     508472  MISS:       9706
cpu0_L1D PREFETCH  REQUESTED:          0  ISSUED:          0  USEFUL:          0  USELESS:          0
cpu0_L1D AVERAGE MISS LATENCY: 209.13 cycles
cpu0_L2C TOTAL     ACCESS:   23970126  HIT:    5655638  MISS:   18314488
cpu0_L2C LOAD      ACCESS:   21742676  HIT:    4087047  MISS:   17655629
cpu0_L2C RFO       ACCESS:     797089  HIT:     142227  MISS:     654862
cpu0_L2C PREFETCH  ACCESS:          0  HIT:          0  MISS:          0
cpu0_L2C WRITEBACK ACCESS:    1420655  HIT:    1417974  MISS:       2681
cpu0_L2C TRANSLATION ACCESS:       9706  HIT:       8390  MISS:       1316
cpu0_L2C PREFETCH  REQUESTED:          0  ISSUED:          0  USEFUL:          0  USELESS:          0
cpu0_L2C AVERAGE MISS LATENCY: 243.892 cycles
LLC TOTAL     ACCESS:   19446918  HIT:    2103061  MISS:   17343857
LLC LOAD      ACCESS:   17655581  HIT:     891484  MISS:   16764097
LLC RFO       ACCESS:     654862  HIT:      89553  MISS:     565309
LLC PREFETCH  ACCESS:          0  HIT:          0  MISS:          0
LLC WRITEBACK ACCESS:    1135159  HIT:    1121902  MISS:      13257
LLC TRANSLATION ACCESS:       1316  HIT:        122  MISS:       1194
LLC PREFETCH  REQUESTED:          0  ISSUED:          0  USEFUL:          0  USELESS:          0
LLC AVERAGE MISS LATENCY: 235.37 cycles
~~~~~~~~~~Reuse Distance Profiler output~~~~~~~~~~
0	39510032	22847584
1	37714576	34754768
2	50689200	47940304
3	20414640	19483552
4	19919040	19245504
5	6994384	6423904
6	4705856	3932496
7	3242416	2849136
8	2260416	1924784
9	1712688	1431408
10	1593360	1339440
11	1195600	940256
12	1091104	863024
13	850048	671184
14	994912	674256
15	711408	570336
16	763072	582480
17	946224	802848
18	799776	682208
19	644336	503568
20	552048	412448
21	524304	386592
22	617552	452528
23	511984	376176
24	529760	427168
25	616128	461248
26	575824	443152
27	582000	512848
28	685232	597984
29	598176	519312
30	688608	623680
31	744976	675120
32	880096	785392
33	1001776	896640
34	1018464	915008
35	1000544	870784
36	984544	830544
37	1066528	952976
38	1114176	997920
39	1277168	1167424
40	1265424	1162304
41	1233344	1118080
42	1276192	1138544
43	1263024	1079328
44	1221184	1099056
45	1143792	1020176
46	1055504	918992
47	979824	877216
48	1041056	934816
49	1042176	937056
50	947504	857776
51	885408	809792
52	852880	788416
53	709664	648640
54	565184	509056
55	443312	394288
56	370912	324640
57	303296	267872
58	281408	248448
59	278592	247216
60	326432	295888
61	274480	240624
62	243088	207920
63	278128	241536
64	634848	538896
66	586096	444752
68	563088	436864
70	438720	359872
72	382384	348192
74	410352	374624
76	502784	469488
78	450176	410000
80	381168	329632
82	343792	307168
84	232912	203904
86	242720	217648
88	268768	245664
90	330624	279792
92	281984	253696
94	337072	299472
96	339200	288704
98	319744	286144
100	395184	337280
102	484864	417760
104	550992	461968
106	654816	562240
108	833888	737040
110	835376	746384
112	694992	610144
114	507360	420192
116	313136	252208
118	239888	191696
120	185856	155856
122	151712	125968
124	147728	123184
126	162736	133584
128	290448	246144
132	248400	213136
136	200512	168064
140	224032	189584
144	269248	246816
148	284528	266960
152	299344	285248
156	290624	277536
160	232832	221664
164	181920	173312
168	146560	137488
172	111456	103536
176	86176	78304
180	79328	72096
184	82320	75024
188	87392	80416
192	108096	100384
196	127072	119392
200	166368	147488
204	167360	147536
208	160592	151104
212	164560	159264
216	128784	123664
220	90976	86176
224	76368	71664
228	62640	58896
232	54640	49968
236	53216	48432
240	71536	65664
244	84528	77744
248	71520	62960
252	59552	46256
256	100560	79712
264	76768	60048
272	67248	55824
280	80800	63952
288	90352	63728
296	94480	55168
304	83152	45936
312	74240	46400
320	79888	55888
328	85104	64944
336	79424	62352
344	75248	60400
352	83632	69648
360	93968	80640
368	106704	94656
376	133712	124000
384	164880	154656
392	181744	173840
400	188832	180912
408	178800	172240
416	157664	150528
424	133456	125072
432	121760	111648
440	126528	113344
448	146368	130368
456	170272	148784
464	239744	209360
472	340640	300928
480	427104	376176
488	468432	410752
496	432704	378480
504	305536	262496
512	268432	227824
528	103104	87040
544	60944	51264
560	44736	37200
576	40096	32944
592	41456	29344
608	50240	25664
624	48352	22784
640	38864	27408
656	35328	27824
672	30864	23616
688	24736	20576
704	21152	17136
720	22256	18784
736	22720	19568
752	27584	23872
768	32032	27264
784	34464	28816
800	33008	29600
816	24368	21744
832	25088	21840
848	30864	27440
864	52768	48992
880	91264	80304
896	57552	49936
912	58496	53328
928	77776	74960
944	77792	75648
960	106736	104144
976	174400	169440
992	250752	229888
1008	304640	266592
1024	305376	258272
1056	61248	53952
1088	37040	32784
1120	28640	24544
1152	26144	22240
1184	24304	21328
1216	22160	18880
1248	20944	18080
1280	21120	17920
1312	21616	18416
1344	21552	18528
1376	21136	18096
1408	24272	20912
1440	42448	39664
1472	66176	63568
1504	57472	54768
1536	34944	32064
1568	26256	23696
1600	20016	17904
1632	15968	14128
1664	16000	14144
1696	16480	14416
1728	15280	13616
1760	15696	14160
1792	16720	14992
1824	17760	16160
1856	15968	14608
1888	20768	19344
1920	28096	26768
1952	40096	38272
1984	53232	51856
2016	61440	60080
2048	75568	72960
2112	37344	34912
2176	31376	28880
2240	29344	26736
2304	30176	27360
2368	33152	30608
2432	60800	58336
2496	62912	60112
2560	37472	33520
2624	30640	23408
2688	26576	21264
2752	23664	20256
2816	24096	21936
2880	32096	30032
2944	54048	51632
3008	64608	61408
3072	51792	48448
3136	27472	24576
3200	22048	19840
3264	19280	17840
3328	21088	19728
3392	30784	29792
3456	42496	41104
3520	36960	35888
3584	25776	25168
3648	19840	18912
3712	18112	17632
3776	16608	16080
3840	21280	20480
3904	31056	30288
3968	39072	38640
4032	42176	41728
4096	58624	57616
4224	36320	35200
4352	49744	48496
4480	62304	61232
4608	37392	36480
4736	35776	34432
4864	50864	49872
4992	67264	66192
5120	53920	53184
5248	37632	36832
5376	49312	48352
5504	48832	47600
5632	34960	34000
5760	31952	31088
5888	47056	46096
6016	52400	51680
6144	46624	45520
6272	34816	33968
6400	43648	42896
6528	41664	40976
6656	31504	30832
6784	32144	31424
6912	41536	40848
7040	46432	45664
7168	41968	41232
7296	34352	33776
7424	39168	38368
7552	36688	35312
7680	29456	28656
7808	30816	29984
7936	38528	36464
8064	42368	38240
8192	71664	69504
8448	69776	66960
8704	60608	57072
8960	70160	66896
9216	66720	65408
9472	63120	61504
9728	57936	56192
9984	65904	63072
10240	65088	63072
10496	57008	55312
10752	59920	52384
11008	59456	54752
11264	59344	57552
11520	51872	50320
11776	50048	47456
12032	53312	50224
12288	58144	56720
12544	49936	48592
12800	47120	46128
13056	48656	47392
13312	54560	51840
13568	49376	44224
13824	44960	43728
14080	45008	44016
14336	50000	48256
14592	42368	41056
14848	42624	40192
15104	41328	40480
15360	44096	43312
15616	40016	39312
15872	39824	38976
16128	39776	39232
16384	83040	81296
16896	76192	73648
17408	78720	76768
17920	81168	71456
18432	75488	73408
18944	79088	68352
19456	73520	70416
19968	69600	66752
20480	79824	76400
20992	89584	82144
21504	66848	64432
22016	62480	56512
22528	60480	58464
23040	56320	54144
23552	55360	53632
24064	54272	53056
24576	61728	59424
25088	46336	45232
25600	48240	47408
26112	44416	43504
26624	43536	42784
27136	40528	39696
27648	41472	40896
28160	38032	37488
28672	40640	39936
29184	37056	36384
29696	37152	36528
30208	34960	34256
30720	35760	35232
31232	32736	32352
31744	33280	32960
32256	30080	29856
32768	62912	62352
33792	60368	59632
34816	57952	56944
35840	54064	53376
36864	51488	50624
37888	49120	48544
38912	49184	48880
39936	46560	45936
40960	46112	45456
41984	43728	42848
43008	43024	41936
44032	41200	40336
45056	38960	38512
46080	38352	37648
47104	37616	37184
48128	38064	36320
49152	35808	34272
50176	33424	32464
51200	31408	30592
52224	31760	31008
53248	29152	28720
54272	29440	29040
55296	28560	28128
56320	31600	31200
57344	30688	30496
58368	27984	27824
59392	29440	29296
60416	26016	25888
61440	25920	25712
62464	26192	25952
63488	26576	26512
64512	23152	22992
65536	44592	44368
67584	42368	42128
69632	43168	42976
71680	41216	41072
73728	38304	38176
75776	33568	33520
77824	32048	31936
79872	31008	30896
81920	28352	28256
83968	29344	29072
86016	26592	25232
88064	27168	24784
90112	27984	24720
92160	27920	24784
94208	26160	24016
96256	24144	23280
98304	24272	23472
100352	21856	20992
102400	21360	20112
104448	21920	20400
106496	20256	18896
108544	21024	19552
110592	18784	17472
112640	18768	17504
114688	18688	17168
116736	18896	16624
118784	16496	14112
120832	15392	12720
122880	15040	12864
124928	14512	13216
126976	16032	14672
129024	15840	14576
131072	29328	27136
135168	25824	23536
139264	27584	25872
143360	24352	22496
147456	22928	21520
151552	21680	20400
155648	20704	19488
159744	20768	18880
163840	21312	18784
167936	21376	18320
172032	21456	17456
176128	20032	15120
180224	21456	17136
184320	17840	14192
188416	15968	12544
192512	15248	12576
196608	14576	12368
200704	13664	11104
204800	14704	11760
208896	13600	10912
212992	13712	10816
217088	13536	11008
221184	14032	11296
225280	12512	9472
229376	12048	9184
233472	12992	10480
237568	12304	9424
241664	10864	8784
245760	11120	8560
249856	11936	9392
253952	11040	8464
258048	11296	8576
262144	19664	14528
270336	19200	13600
278528	18352	12112
286720	17872	12304
294912	18832	12288
303104	16480	10880
311296	18128	12160
319488	17360	12000
327680	17664	11936
335872	17344	12592
344064	15840	11728
352256	13936	10800
360448	13056	9648
368640	13856	10272
376832	12544	9584
385024	11920	8960
393216	12304	9392
401408	11936	8880
409600	10640	8192
417792	10336	7872
425984	10064	7488
434176	9456	7520
442368	10304	7984
450560	8688	6464
458752	8800	6672
466944	9360	7472
475136	9584	7696
483328	10448	8192
491520	9968	7776
499712	9376	7280
507904	8576	6736
516096	8320	6128
524288	15664	11680
540672	16288	12544
557056	16784	12848
573440	16016	11936
589824	14592	10992
606208	27104	20624
622592	79808	72000
638976	97072	93104
655360	23744	19808
671744	23168	19904
688128	24496	19520
704512	73040	68032
720896	81616	77360
737280	71408	66400
753664	194768	184384
770048	175296	169648
786432	110736	106864
802816	98576	94544
819200	116736	99344
835584	881456	849616
851968	1023872	997616
868352	694560	674944
884736	697392	679664
901120	515488	496800
917504	501456	488720
933888	396656	384736
950272	326400	317664
966656	307008	295360
983040	465872	452160
999424	317216	309984
1015808	271680	267024
1032192	143392	137584
1048576	569008	550032
1081344	896640	871872
1114112	566720	552560
1146880	411008	400928
1179648	217776	209760
1212416	469888	449984
1245184	1115568	1092704
1277952	468464	458704
1310720	350608	343168
1343488	270768	263008
1376256	215424	207200
1409024	258848	248160
1441792	381376	376448
1474560	395184	380416
1507328	479760	470304
1540096	303120	295056
1572864	307440	297264
1605632	436608	425248
1638400	372144	367408
1671168	187952	183152
1703936	238080	229824
1736704	269712	264512
1769472	374768	365360
1802240	560768	548512
1835008	562320	556224
1867776	58768	55328
1900544	52896	47456
1933312	107888	106304
1966080	36448	35024
1998848	77376	73296
2031616	131568	126592
2064384	270384	264272
2097152	376432	369568
2162688	191280	188368
2228224	52592	51872
2293760	78640	76224
2359296	48544	48032
2424832	46336	45136
2490368	170480	163632
2555904	193968	191184
2621440	138704	136096
2686976	127360	124896
2752512	149968	148992
2818048	38160	37744
2883584	75856	75552
2949120	30544	28240
3014656	89680	87488
3080192	62544	60224
3145728	243248	238976
3211264	118128	116992
3276800	288672	285664
3342336	64592	62080
3407872	141456	138720
3473408	17648	17616
3538944	2192	2192
3604480	5824	5792
3670016	2848	2848
3735552	2320	2304
3801088	1968	1952
3866624	7584	7568
3932160	1952	1952
3997696	1920	1920
4063232	1008	1008
4128768	3408	3392
4194304	12032	11952
4325376	11728	11664
4456448	12272	12272
4587520	4752	4704
4718592	2480	2400
4849664	3184	3120
4980736	4816	4800
5111808	5152	5120
5242880	11248	11200
5373952	4944	4928
5505024	4400	4368
5636096	6288	6256
5767168	4000	3968
5898240	5520	5472
6029312	6016	5984
6160384	3776	3776
6291456	4432	4352
6422528	2960	2896
6553600	2560	2432
6684672	4960	4944
6815744	2144	2144
6946816	3152	3152
7077888	3056	3056
7208960	2848	2832
7340032	3088	3056
7471104	4176	4096
7602176	5008	4944
7733248	3072	3040
7864320	2624	2624
7995392	5120	5104
8126464	4304	4288
8257536	1104	1008
8388608	7264	7232
8650752	3776	3712
8912896	7440	7408
9175040	4224	4224
9437184	2944	2912
9699328	3280	3184
9961472	3968	3952
10223616	5456	5056
10485760	5904	5232
10747904	3952	3344
11010048	5536	5088
11272192	3696	3696
11534336	4240	4224
11796480	12992	12464
12058624	5664	5264
12320768	4208	3856
12582912	2304	1856
12845056	9248	8656
13107200	3456	3264
13369344	6496	5936
13631488	9200	9008
13893632	4816	4800
14155776	4368	3792
14417920	3696	3296
14680064	2688	2688
14942208	7696	7696
15204352	1744	1728
15466496	5808	5792
15728640	1840	1840
15990784	4464	4432
16252928	3248	3232
16515072	2176	2128
16777216	4496	4128
17301504	4752	4528
17825792	2768	2368
18350080	6192	5056
18874368	5088	5024
19398656	2960	2928
19922944	4960	4256
20447232	3984	3984
20971520	3744	3744
21495808	2560	2496
22020096	5168	4816
22544384	4096	3744
23068672	2720	2704
23592960	1200	1120
24117248	5424	5328
24641536	1888	1856
25165824	2288	2192
25690112	2240	2176
26214400	3440	3376
26738688	2160	2160
27262976	2864	2320
27787264	3568	3392
28311552	4000	3952
28835840	2688	2672
29360128	1408	1392
29884416	4496	4496
30408704	6192	6176
30932992	1520	1504
31457280	3856	3856
31981568	3488	3472
32505856	3264	2448
33030144	1056	976
33554432	5648	5616
34603008	3120	3040
35651584	4832	4768
36700160	4272	4224
37748736	2272	2112
38797312	4624	4592
39845888	3552	3520
40894464	2912	2912
41943040	2944	2912
42991616	3488	3488
44040192	3312	3312
45088768	1664	1664
46137344	2416	2352
47185920	4160	4064
48234496	3712	3712
49283072	2176	2176
50331648	2096	2064
51380224	2320	2320
52428800	2544	2496
53477376	1488	1488
54525952	1904	1888
55574528	608	608
56623104	672	672
57671680	1168	1168
58720256	352	336
59768832	512	512
60817408	288	288
61865984	2880	2880
62914560	384	384
63963136	320	304
65011712	448	448
66060288	624	624
67108864	2752	2752
69206016	2640	2640
71303168	2496	2496
73400320	3440	3424
75497472	4128	4128
77594624	7968	7968
79691776	2464	2400
81788928	2576	2576
83886080	1664	1664
85983232	2640	2640
88080384	5280	5280
90177536	2320	2288
92274688	3488	3456
94371840	3696	3680
96468992	2432	2432
98566144	1872	1872
100663296	528	480
102760448	1488	1472
104857600	720	688
106954752	816	816
109051904	1136	1136
111149056	880	880
113246208	288	288
115343360	1088	1088
117440512	64	64
119537664	144	144
121634816	240	240
123731968	192	192
125829120	320	320
127926272	2000	2000
130023424	1568	1568
132120576	112	112
134217728	48	48
138412032	64	64
142606336	160	128
146800640	32	32
150994944	16	16
155189248	64	64
159383552	0	0
163577856	0	0
167772160	128	128
171966464	48	48
176160768	1088	1088
180355072	32	32
184549376	16	16
188743680	48	48
192937984	16	16
197132288	0	0
201326592	32	32
205520896	32	32
209715200	0	0
213909504	0	0
218103808	0	0
222298112	0	0
226492416	0	0
230686720	0	0
234881024	0	0
239075328	0	0
243269632	0	0
247463936	32	32
251658240	32	32
255852544	0	0
260046848	0	0
264241152	0	0
268435456	0	0
276824064	0	0
285212672	0	0
293601280	0	0
301989888	0	0
310378496	0	0
318767104	0	0
327155712	0	0
335544320	0	0
343932928	0	0
352321536	0	0
360710144	0	0
369098752	0	0
377487360	0	0
385875968	0	0
394264576	0	0
402653184	0	0
411041792	0	0
419430400	0	0
427819008	0	0
436207616	0	0
444596224	0	0
452984832	0	0
461373440	0	0
469762048	0	0
478150656	0	0
486539264	0	0
494927872	0	0
503316480	0	0
511705088	0	0
520093696	0	0
528482304	0	0
536870912	0	0
553648128	0	0
570425344	0	0
587202560	0	0
603979776	0	0
620756992	0	0
637534208	0	0
654311424	0	0
671088640	0	0
687865856	0	0
704643072	0	0
721420288	0	0
738197504	0	0
754974720	0	0
771751936	0	0
788529152	0	0
805306368	0	0
822083584	0	0
838860800	0	0
855638016	0	0
872415232	0	0
889192448	0	0
905969664	0	0
922746880	0	0
939524096	0	0
956301312	0	0
973078528	0	0
989855744	0	0
1006632960	0	0
1023410176	0	0
1040187392	0	0
1056964608	0	0
1073741824	0	0
1107296256	0	0
1140850688	0	0
1174405120	0	0
1207959552	0	0
1241513984	0	0
1275068416	0	0
1308622848	0	0
1342177280	0	0
1375731712	0	0
1409286144	0	0
1442840576	0	0
1476395008	0	0
1509949440	0	0
1543503872	0	0
1577058304	0	0
1610612736	0	0
1644167168	0	0
1677721600	0	0
1711276032	0	0
1744830464	0	0
1778384896	0	0
1811939328	0	0
1845493760	0	0
1879048192	0	0
1912602624	0	0
1946157056	0	0
1979711488	0	0
2013265920	0	0
2046820352	0	0
2080374784	0	0
2113929216	0	0
2147483648	0	0
2214592512	0	0
2281701376	0	0
2348810240	0	0
2415919104	0	0
2483027968	0	0
2550136832	0	0
2617245696	0	0
2684354560	0	0
2751463424	0	0
2818572288	0	0
2885681152	0	0
2952790016	0	0
3019898880	0	0
3087007744	0	0
3154116608	0	0
3221225472	0	0
3288334336	0	0
3355443200	0	0
3422552064	0	0
3489660928	0	0
3556769792	0	0
3623878656	0	0
3690987520	0	0
3758096384	0	0
3825205248	0	0
3892314112	0	0
3959422976	0	0
4026531840	0	0
4093640704	0	0
4160749568	0	0
4227858432	0	0
~~~~~~~~~~Reuse Distance Profiler output end~~~~~~~~~~

DRAM Statistics
 CHANNEL 0
 RQ ROW_BUFFER_HIT:     891522  ROW_BUFFER_MISS:   16437392
 DBUS AVG_CONGESTED_CYCLE:    3.92118
 WQ ROW_BUFFER_HIT:     219302  ROW_BUFFER_MISS:     840275  FULL:          0


CPU 0 Branch Prediction Accuracy: 92.8926% MPKI: 6.74772 Average ROB Occupancy at Mispredict: 182.378
Branch type MPKI
BRANCH_DIRECT_JUMP: 6e-06
BRANCH_INDIRECT: 0
BRANCH_CONDITIONAL: 6.74772
BRANCH_DIRECT_CALL: 6.66667e-07
BRANCH_INDIRECT_CALL: 0
BRANCH_RETURN: 6.66667e-07

