
*** ChampSim Multicore Out-of-Order Simulator ***

Warmup Instructions: 500000000
Simulation Instructions: 1500000000
Number of CPUs: 1
Off-chip DRAM Size: 4 GiB Channels: 1 Width: 64-bit Data Rate: 3200 MT/s

VirtualMemory physical capacity: 8588881920 num_ppages: 2096895
VirtualMemory page size: 4096 log2_page_size: 12

CPU 0 runs traces/483.xalancbmk-127B.champsimtrace.xz
CPU 0 Bimodal branch predictor
Basic BTB sets: 1024 ways: 8 indirect buffer size: 4096 RAS size: 64
Initializing LRU.
Initializing LRU.
Initializing LRU.
Initializing LRU.
Initializing rdLRU.
Initializing LRU.
Initializing LRU.
Heartbeat CPU 0 instructions: 10000000 cycles: 2864263 heartbeat IPC: 3.4913 cumulative IPC: 3.4913 (Simulation time: 0 hr 0 min 56 sec) 
Heartbeat CPU 0 instructions: 20000000 cycles: 5724283 heartbeat IPC: 3.49648 cumulative IPC: 3.49389 (Simulation time: 0 hr 1 min 40 sec) 
Heartbeat CPU 0 instructions: 30000001 cycles: 8582764 heartbeat IPC: 3.49836 cumulative IPC: 3.49538 (Simulation time: 0 hr 2 min 31 sec) 
Heartbeat CPU 0 instructions: 40000002 cycles: 11464111 heartbeat IPC: 3.4706 cumulative IPC: 3.48915 (Simulation time: 0 hr 3 min 41 sec) 
Heartbeat CPU 0 instructions: 50000001 cycles: 14317006 heartbeat IPC: 3.50521 cumulative IPC: 3.49235 (Simulation time: 0 hr 4 min 28 sec) 
Heartbeat CPU 0 instructions: 60000001 cycles: 17183017 heartbeat IPC: 3.48917 cumulative IPC: 3.49182 (Simulation time: 0 hr 5 min 38 sec) 
Heartbeat CPU 0 instructions: 70000001 cycles: 20040326 heartbeat IPC: 3.4998 cumulative IPC: 3.49296 (Simulation time: 0 hr 6 min 47 sec) 
Heartbeat CPU 0 instructions: 80000004 cycles: 22907542 heartbeat IPC: 3.4877 cumulative IPC: 3.4923 (Simulation time: 0 hr 7 min 47 sec) 
Heartbeat CPU 0 instructions: 90000003 cycles: 25747816 heartbeat IPC: 3.52079 cumulative IPC: 3.49544 (Simulation time: 0 hr 8 min 40 sec) 
Heartbeat CPU 0 instructions: 100000002 cycles: 28591066 heartbeat IPC: 3.5171 cumulative IPC: 3.4976 (Simulation time: 0 hr 9 min 47 sec) 
Heartbeat CPU 0 instructions: 110000001 cycles: 31440699 heartbeat IPC: 3.50922 cumulative IPC: 3.49865 (Simulation time: 0 hr 10 min 29 sec) 
Heartbeat CPU 0 instructions: 120000000 cycles: 34292556 heartbeat IPC: 3.50649 cumulative IPC: 3.4993 (Simulation time: 0 hr 11 min 11 sec) 
Heartbeat CPU 0 instructions: 130000001 cycles: 37138248 heartbeat IPC: 3.51408 cumulative IPC: 3.50043 (Simulation time: 0 hr 11 min 52 sec) 
Heartbeat CPU 0 instructions: 140000000 cycles: 40020336 heartbeat IPC: 3.46971 cumulative IPC: 3.49822 (Simulation time: 0 hr 12 min 35 sec) 
Heartbeat CPU 0 instructions: 150000004 cycles: 42868246 heartbeat IPC: 3.51135 cumulative IPC: 3.49909 (Simulation time: 0 hr 13 min 17 sec) 
Heartbeat CPU 0 instructions: 160000004 cycles: 45737976 heartbeat IPC: 3.48465 cumulative IPC: 3.49819 (Simulation time: 0 hr 14 min 21 sec) 
Heartbeat CPU 0 instructions: 170000002 cycles: 48599803 heartbeat IPC: 3.49427 cumulative IPC: 3.49796 (Simulation time: 0 hr 15 min 5 sec) 
Heartbeat CPU 0 instructions: 180000001 cycles: 51464808 heartbeat IPC: 3.4904 cumulative IPC: 3.49754 (Simulation time: 0 hr 15 min 47 sec) 
Heartbeat CPU 0 instructions: 190000004 cycles: 54297878 heartbeat IPC: 3.52974 cumulative IPC: 3.49922 (Simulation time: 0 hr 16 min 29 sec) 
Heartbeat CPU 0 instructions: 200000000 cycles: 57155361 heartbeat IPC: 3.49958 cumulative IPC: 3.49923 (Simulation time: 0 hr 17 min 14 sec) 
Heartbeat CPU 0 instructions: 210000000 cycles: 60018179 heartbeat IPC: 3.49306 cumulative IPC: 3.49894 (Simulation time: 0 hr 18 min 13 sec) 
Heartbeat CPU 0 instructions: 220000003 cycles: 62875220 heartbeat IPC: 3.50013 cumulative IPC: 3.49899 (Simulation time: 0 hr 19 min 25 sec) 
Heartbeat CPU 0 instructions: 230000000 cycles: 65737123 heartbeat IPC: 3.49418 cumulative IPC: 3.49878 (Simulation time: 0 hr 20 min 32 sec) 
Heartbeat CPU 0 instructions: 240000002 cycles: 68591362 heartbeat IPC: 3.50356 cumulative IPC: 3.49898 (Simulation time: 0 hr 21 min 48 sec) 
Heartbeat CPU 0 instructions: 250000002 cycles: 71457113 heartbeat IPC: 3.48949 cumulative IPC: 3.4986 (Simulation time: 0 hr 23 min 4 sec) 
Heartbeat CPU 0 instructions: 260000002 cycles: 74308512 heartbeat IPC: 3.50705 cumulative IPC: 3.49893 (Simulation time: 0 hr 24 min 2 sec) 
Heartbeat CPU 0 instructions: 270000003 cycles: 77170127 heartbeat IPC: 3.49453 cumulative IPC: 3.49876 (Simulation time: 0 hr 25 min 6 sec) 
Heartbeat CPU 0 instructions: 280000002 cycles: 80024676 heartbeat IPC: 3.50318 cumulative IPC: 3.49892 (Simulation time: 0 hr 25 min 48 sec) 
Heartbeat CPU 0 instructions: 290000003 cycles: 82888672 heartbeat IPC: 3.49163 cumulative IPC: 3.49867 (Simulation time: 0 hr 26 min 33 sec) 
Heartbeat CPU 0 instructions: 300000000 cycles: 85750232 heartbeat IPC: 3.4946 cumulative IPC: 3.49853 (Simulation time: 0 hr 27 min 18 sec) 
Heartbeat CPU 0 instructions: 310000001 cycles: 88608661 heartbeat IPC: 3.49843 cumulative IPC: 3.49853 (Simulation time: 0 hr 28 min 2 sec) 
Heartbeat CPU 0 instructions: 320000002 cycles: 91457283 heartbeat IPC: 3.51047 cumulative IPC: 3.4989 (Simulation time: 0 hr 28 min 55 sec) 
Heartbeat CPU 0 instructions: 330000002 cycles: 94327197 heartbeat IPC: 3.48443 cumulative IPC: 3.49846 (Simulation time: 0 hr 30 min 11 sec) 
Heartbeat CPU 0 instructions: 340000002 cycles: 97179974 heartbeat IPC: 3.50536 cumulative IPC: 3.49866 (Simulation time: 0 hr 31 min 26 sec) 
Heartbeat CPU 0 instructions: 350000001 cycles: 100032088 heartbeat IPC: 3.50617 cumulative IPC: 3.49888 (Simulation time: 0 hr 32 min 24 sec) 
Heartbeat CPU 0 instructions: 360000002 cycles: 102883849 heartbeat IPC: 3.50661 cumulative IPC: 3.49909 (Simulation time: 0 hr 33 min 6 sec) 
Heartbeat CPU 0 instructions: 370000004 cycles: 105722990 heartbeat IPC: 3.52219 cumulative IPC: 3.49971 (Simulation time: 0 hr 33 min 47 sec) 
Heartbeat CPU 0 instructions: 380000002 cycles: 108587524 heartbeat IPC: 3.49097 cumulative IPC: 3.49948 (Simulation time: 0 hr 34 min 29 sec) 
Heartbeat CPU 0 instructions: 390000004 cycles: 111446483 heartbeat IPC: 3.49778 cumulative IPC: 3.49944 (Simulation time: 0 hr 35 min 12 sec) 
Heartbeat CPU 0 instructions: 400000002 cycles: 114311100 heartbeat IPC: 3.49087 cumulative IPC: 3.49922 (Simulation time: 0 hr 35 min 53 sec) 
Heartbeat CPU 0 instructions: 410000002 cycles: 117175541 heartbeat IPC: 3.49108 cumulative IPC: 3.49902 (Simulation time: 0 hr 36 min 35 sec) 
Heartbeat CPU 0 instructions: 420000004 cycles: 120037144 heartbeat IPC: 3.49455 cumulative IPC: 3.49892 (Simulation time: 0 hr 37 min 16 sec) 
Heartbeat CPU 0 instructions: 430000002 cycles: 122892940 heartbeat IPC: 3.50165 cumulative IPC: 3.49898 (Simulation time: 0 hr 38 min 10 sec) 
Heartbeat CPU 0 instructions: 440000000 cycles: 125778253 heartbeat IPC: 3.46583 cumulative IPC: 3.49822 (Simulation time: 0 hr 39 min 12 sec) 
Heartbeat CPU 0 instructions: 450000003 cycles: 128641573 heartbeat IPC: 3.49245 cumulative IPC: 3.49809 (Simulation time: 0 hr 40 min 8 sec) 
Heartbeat CPU 0 instructions: 460000002 cycles: 131495066 heartbeat IPC: 3.50448 cumulative IPC: 3.49823 (Simulation time: 0 hr 41 min 7 sec) 
Heartbeat CPU 0 instructions: 470000003 cycles: 134337994 heartbeat IPC: 3.5175 cumulative IPC: 3.49864 (Simulation time: 0 hr 41 min 58 sec) 
Heartbeat CPU 0 instructions: 480000004 cycles: 137172338 heartbeat IPC: 3.52815 cumulative IPC: 3.49925 (Simulation time: 0 hr 42 min 54 sec) 
Heartbeat CPU 0 instructions: 490000000 cycles: 140026013 heartbeat IPC: 3.50425 cumulative IPC: 3.49935 (Simulation time: 0 hr 43 min 34 sec) 
Heartbeat CPU 0 instructions: 500000000 cycles: 142879726 heartbeat IPC: 3.50421 cumulative IPC: 3.49945 (Simulation time: 0 hr 44 min 17 sec) 

Warmup complete CPU 0 instructions: 500000005 cycles: 142879734 (Simulation time: 0 hr 44 min 17 sec) 

Heartbeat CPU 0 instructions: 510000001 cycles: 178476139 heartbeat IPC: 0.280927 cumulative IPC: 0.280927 (Simulation time: 0 hr 45 min 39 sec) 
Heartbeat CPU 0 instructions: 520000000 cycles: 213759082 heartbeat IPC: 0.283423 cumulative IPC: 0.28217 (Simulation time: 0 hr 47 min 14 sec) 
Heartbeat CPU 0 instructions: 530000001 cycles: 251375981 heartbeat IPC: 0.265838 cumulative IPC: 0.276507 (Simulation time: 0 hr 49 min 0 sec) 
Heartbeat CPU 0 instructions: 540000001 cycles: 288307087 heartbeat IPC: 0.270774 cumulative IPC: 0.275051 (Simulation time: 0 hr 50 min 53 sec) 
Heartbeat CPU 0 instructions: 550000000 cycles: 323871648 heartbeat IPC: 0.281179 cumulative IPC: 0.276255 (Simulation time: 0 hr 52 min 59 sec) 
Heartbeat CPU 0 instructions: 560000000 cycles: 361867339 heartbeat IPC: 0.263188 cumulative IPC: 0.273988 (Simulation time: 0 hr 54 min 30 sec) 
Heartbeat CPU 0 instructions: 570000000 cycles: 396859701 heartbeat IPC: 0.285777 cumulative IPC: 0.275612 (Simulation time: 0 hr 55 min 45 sec) 
Heartbeat CPU 0 instructions: 580000002 cycles: 432594036 heartbeat IPC: 0.279843 cumulative IPC: 0.276134 (Simulation time: 0 hr 57 min 20 sec) 
Heartbeat CPU 0 instructions: 590000000 cycles: 468421948 heartbeat IPC: 0.279112 cumulative IPC: 0.276462 (Simulation time: 0 hr 59 min 18 sec) 
Heartbeat CPU 0 instructions: 600000000 cycles: 501865742 heartbeat IPC: 0.299009 cumulative IPC: 0.278562 (Simulation time: 1 hr 1 min 27 sec) 
Heartbeat CPU 0 instructions: 610000001 cycles: 535822968 heartbeat IPC: 0.294488 cumulative IPC: 0.279939 (Simulation time: 1 hr 3 min 42 sec) 
Heartbeat CPU 0 instructions: 620000000 cycles: 568753304 heartbeat IPC: 0.303671 cumulative IPC: 0.281774 (Simulation time: 1 hr 5 min 57 sec) 
Heartbeat CPU 0 instructions: 630000003 cycles: 604510045 heartbeat IPC: 0.279668 cumulative IPC: 0.281611 (Simulation time: 1 hr 7 min 19 sec) 
Heartbeat CPU 0 instructions: 640000000 cycles: 640375589 heartbeat IPC: 0.278819 cumulative IPC: 0.281409 (Simulation time: 1 hr 8 min 44 sec) 
Heartbeat CPU 0 instructions: 650000003 cycles: 675406744 heartbeat IPC: 0.28546 cumulative IPC: 0.281676 (Simulation time: 1 hr 9 min 55 sec) 
Heartbeat CPU 0 instructions: 660000001 cycles: 709926129 heartbeat IPC: 0.289692 cumulative IPC: 0.282164 (Simulation time: 1 hr 11 min 8 sec) 
Heartbeat CPU 0 instructions: 670000000 cycles: 744016961 heartbeat IPC: 0.293334 cumulative IPC: 0.282797 (Simulation time: 1 hr 12 min 19 sec) 
Heartbeat CPU 0 instructions: 680000001 cycles: 780657776 heartbeat IPC: 0.27292 cumulative IPC: 0.28223 (Simulation time: 1 hr 13 min 34 sec) 
Heartbeat CPU 0 instructions: 690000002 cycles: 816070674 heartbeat IPC: 0.282383 cumulative IPC: 0.282238 (Simulation time: 1 hr 14 min 50 sec) 
Heartbeat CPU 0 instructions: 700000000 cycles: 848915078 heartbeat IPC: 0.304466 cumulative IPC: 0.283272 (Simulation time: 1 hr 16 min 11 sec) 
Heartbeat CPU 0 instructions: 710000003 cycles: 884893657 heartbeat IPC: 0.277943 cumulative IPC: 0.283014 (Simulation time: 1 hr 17 min 50 sec) 
Heartbeat CPU 0 instructions: 720000000 cycles: 921950445 heartbeat IPC: 0.269856 cumulative IPC: 0.282388 (Simulation time: 1 hr 19 min 49 sec) 
Heartbeat CPU 0 instructions: 730000000 cycles: 959629546 heartbeat IPC: 0.265399 cumulative IPC: 0.281604 (Simulation time: 1 hr 21 min 25 sec) 
Heartbeat CPU 0 instructions: 740000000 cycles: 995605546 heartbeat IPC: 0.277963 cumulative IPC: 0.28145 (Simulation time: 1 hr 22 min 44 sec) 
Heartbeat CPU 0 instructions: 750000000 cycles: 1034203612 heartbeat IPC: 0.25908 cumulative IPC: 0.280482 (Simulation time: 1 hr 24 min 9 sec) 
Heartbeat CPU 0 instructions: 760000002 cycles: 1071367056 heartbeat IPC: 0.269082 cumulative IPC: 0.280025 (Simulation time: 1 hr 25 min 35 sec) 
Heartbeat CPU 0 instructions: 770000002 cycles: 1103835705 heartbeat IPC: 0.307989 cumulative IPC: 0.28097 (Simulation time: 1 hr 27 min 7 sec) 
Heartbeat CPU 0 instructions: 780000003 cycles: 1139331999 heartbeat IPC: 0.28172 cumulative IPC: 0.280997 (Simulation time: 1 hr 28 min 19 sec) 
Heartbeat CPU 0 instructions: 790000000 cycles: 1173925478 heartbeat IPC: 0.289072 cumulative IPC: 0.281268 (Simulation time: 1 hr 29 min 28 sec) 
Heartbeat CPU 0 instructions: 800000000 cycles: 1211151940 heartbeat IPC: 0.268626 cumulative IPC: 0.280827 (Simulation time: 1 hr 30 min 42 sec) 
Heartbeat CPU 0 instructions: 810000002 cycles: 1248151974 heartbeat IPC: 0.27027 cumulative IPC: 0.280474 (Simulation time: 1 hr 31 min 55 sec) 
Heartbeat CPU 0 instructions: 820000003 cycles: 1281958253 heartbeat IPC: 0.295803 cumulative IPC: 0.280929 (Simulation time: 1 hr 33 min 7 sec) 
Heartbeat CPU 0 instructions: 830000000 cycles: 1317990809 heartbeat IPC: 0.277527 cumulative IPC: 0.280825 (Simulation time: 1 hr 34 min 19 sec) 
Heartbeat CPU 0 instructions: 840000001 cycles: 1353878238 heartbeat IPC: 0.278649 cumulative IPC: 0.28076 (Simulation time: 1 hr 36 min 10 sec) 
Heartbeat CPU 0 instructions: 850000000 cycles: 1391269602 heartbeat IPC: 0.267441 cumulative IPC: 0.280361 (Simulation time: 1 hr 37 min 26 sec) 
Heartbeat CPU 0 instructions: 860000000 cycles: 1428823566 heartbeat IPC: 0.266283 cumulative IPC: 0.27995 (Simulation time: 1 hr 38 min 42 sec) 
Heartbeat CPU 0 instructions: 870000001 cycles: 1466035794 heartbeat IPC: 0.268729 cumulative IPC: 0.279634 (Simulation time: 1 hr 39 min 58 sec) 
Heartbeat CPU 0 instructions: 880000001 cycles: 1499646549 heartbeat IPC: 0.297524 cumulative IPC: 0.280078 (Simulation time: 1 hr 41 min 8 sec) 
Heartbeat CPU 0 instructions: 890000000 cycles: 1534239117 heartbeat IPC: 0.289079 cumulative IPC: 0.280301 (Simulation time: 1 hr 42 min 22 sec) 
Heartbeat CPU 0 instructions: 900000002 cycles: 1569884349 heartbeat IPC: 0.280542 cumulative IPC: 0.280307 (Simulation time: 1 hr 43 min 40 sec) 
Heartbeat CPU 0 instructions: 910000000 cycles: 1606706926 heartbeat IPC: 0.271572 cumulative IPC: 0.280088 (Simulation time: 1 hr 45 min 4 sec) 
Heartbeat CPU 0 instructions: 920000000 cycles: 1640205009 heartbeat IPC: 0.298525 cumulative IPC: 0.2805 (Simulation time: 1 hr 46 min 30 sec) 
Heartbeat CPU 0 instructions: 930000001 cycles: 1675553290 heartbeat IPC: 0.282899 cumulative IPC: 0.280555 (Simulation time: 1 hr 47 min 42 sec) 
Heartbeat CPU 0 instructions: 940000001 cycles: 1712060000 heartbeat IPC: 0.273922 cumulative IPC: 0.280401 (Simulation time: 1 hr 48 min 56 sec) 
Heartbeat CPU 0 instructions: 950000002 cycles: 1748289920 heartbeat IPC: 0.276015 cumulative IPC: 0.280302 (Simulation time: 1 hr 50 min 10 sec) 
Heartbeat CPU 0 instructions: 960000000 cycles: 1786932308 heartbeat IPC: 0.258783 cumulative IPC: 0.279796 (Simulation time: 1 hr 51 min 28 sec) 
Heartbeat CPU 0 instructions: 970000001 cycles: 1822199055 heartbeat IPC: 0.283553 cumulative IPC: 0.279875 (Simulation time: 1 hr 52 min 39 sec) 
Heartbeat CPU 0 instructions: 980000002 cycles: 1858326986 heartbeat IPC: 0.276794 cumulative IPC: 0.27981 (Simulation time: 1 hr 53 min 51 sec) 
Heartbeat CPU 0 instructions: 990000001 cycles: 1895808749 heartbeat IPC: 0.266796 cumulative IPC: 0.279532 (Simulation time: 1 hr 56 min 2 sec) 
Heartbeat CPU 0 instructions: 1000000000 cycles: 1930819032 heartbeat IPC: 0.28563 cumulative IPC: 0.279652 (Simulation time: 1 hr 57 min 47 sec) 
Heartbeat CPU 0 instructions: 1010000000 cycles: 1966603218 heartbeat IPC: 0.279453 cumulative IPC: 0.279648 (Simulation time: 1 hr 59 min 30 sec) 
Heartbeat CPU 0 instructions: 1020000000 cycles: 2004007650 heartbeat IPC: 0.267348 cumulative IPC: 0.2794 (Simulation time: 2 hr 1 min 39 sec) 
Heartbeat CPU 0 instructions: 1030000002 cycles: 2038189438 heartbeat IPC: 0.292554 cumulative IPC: 0.279638 (Simulation time: 2 hr 3 min 53 sec) 
Heartbeat CPU 0 instructions: 1040000000 cycles: 2074958103 heartbeat IPC: 0.271971 cumulative IPC: 0.279492 (Simulation time: 2 hr 6 min 5 sec) 
Heartbeat CPU 0 instructions: 1050000000 cycles: 2111731858 heartbeat IPC: 0.271933 cumulative IPC: 0.279351 (Simulation time: 2 hr 8 min 22 sec) 
Heartbeat CPU 0 instructions: 1060000001 cycles: 2148807530 heartbeat IPC: 0.269719 cumulative IPC: 0.279173 (Simulation time: 2 hr 10 min 36 sec) 
Heartbeat CPU 0 instructions: 1070000001 cycles: 2184979367 heartbeat IPC: 0.276458 cumulative IPC: 0.279124 (Simulation time: 2 hr 12 min 31 sec) 
Heartbeat CPU 0 instructions: 1080000002 cycles: 2220191643 heartbeat IPC: 0.283992 cumulative IPC: 0.279207 (Simulation time: 2 hr 14 min 19 sec) 
Heartbeat CPU 0 instructions: 1090000000 cycles: 2255477660 heartbeat IPC: 0.283398 cumulative IPC: 0.279277 (Simulation time: 2 hr 16 min 1 sec) 
Heartbeat CPU 0 instructions: 1100000001 cycles: 2291446026 heartbeat IPC: 0.278022 cumulative IPC: 0.279256 (Simulation time: 2 hr 17 min 17 sec) 
Heartbeat CPU 0 instructions: 1110000002 cycles: 2328819979 heartbeat IPC: 0.267566 cumulative IPC: 0.279056 (Simulation time: 2 hr 18 min 32 sec) 
Heartbeat CPU 0 instructions: 1120000002 cycles: 2365666405 heartbeat IPC: 0.271397 cumulative IPC: 0.278929 (Simulation time: 2 hr 19 min 45 sec) 
Heartbeat CPU 0 instructions: 1130000001 cycles: 2402697974 heartbeat IPC: 0.27004 cumulative IPC: 0.278783 (Simulation time: 2 hr 21 min 0 sec) 
Heartbeat CPU 0 instructions: 1140000000 cycles: 2437332928 heartbeat IPC: 0.288726 cumulative IPC: 0.278934 (Simulation time: 2 hr 22 min 11 sec) 
Heartbeat CPU 0 instructions: 1150000001 cycles: 2472982644 heartbeat IPC: 0.280507 cumulative IPC: 0.278958 (Simulation time: 2 hr 23 min 47 sec) 
Heartbeat CPU 0 instructions: 1160000001 cycles: 2507635316 heartbeat IPC: 0.288578 cumulative IPC: 0.279099 (Simulation time: 2 hr 25 min 8 sec) 
Heartbeat CPU 0 instructions: 1170000004 cycles: 2545420573 heartbeat IPC: 0.264654 cumulative IPC: 0.278871 (Simulation time: 2 hr 26 min 26 sec) 
Heartbeat CPU 0 instructions: 1180000000 cycles: 2580189416 heartbeat IPC: 0.287614 cumulative IPC: 0.278996 (Simulation time: 2 hr 27 min 37 sec) 
Heartbeat CPU 0 instructions: 1190000000 cycles: 2616291745 heartbeat IPC: 0.27699 cumulative IPC: 0.278967 (Simulation time: 2 hr 28 min 50 sec) 
Heartbeat CPU 0 instructions: 1200000000 cycles: 2652349798 heartbeat IPC: 0.277331 cumulative IPC: 0.278943 (Simulation time: 2 hr 30 min 6 sec) 
Heartbeat CPU 0 instructions: 1210000001 cycles: 2684854079 heartbeat IPC: 0.307652 cumulative IPC: 0.27931 (Simulation time: 2 hr 31 min 14 sec) 
Heartbeat CPU 0 instructions: 1220000004 cycles: 2721560905 heartbeat IPC: 0.272429 cumulative IPC: 0.279213 (Simulation time: 2 hr 32 min 28 sec) 
Heartbeat CPU 0 instructions: 1230000000 cycles: 2757051968 heartbeat IPC: 0.281761 cumulative IPC: 0.279247 (Simulation time: 2 hr 33 min 40 sec) 
Heartbeat CPU 0 instructions: 1240000002 cycles: 2791011651 heartbeat IPC: 0.294467 cumulative IPC: 0.279442 (Simulation time: 2 hr 35 min 24 sec) 
Heartbeat CPU 0 instructions: 1250000000 cycles: 2822471636 heartbeat IPC: 0.317864 cumulative IPC: 0.279893 (Simulation time: 2 hr 36 min 32 sec) 
Heartbeat CPU 0 instructions: 1260000002 cycles: 2857278474 heartbeat IPC: 0.2873 cumulative IPC: 0.279988 (Simulation time: 2 hr 37 min 44 sec) 
Heartbeat CPU 0 instructions: 1270000001 cycles: 2892036116 heartbeat IPC: 0.287706 cumulative IPC: 0.280086 (Simulation time: 2 hr 38 min 55 sec) 
Heartbeat CPU 0 instructions: 1280000000 cycles: 2929779642 heartbeat IPC: 0.264946 cumulative IPC: 0.279881 (Simulation time: 2 hr 40 min 9 sec) 
Heartbeat CPU 0 instructions: 1290000001 cycles: 2966940693 heartbeat IPC: 0.269099 cumulative IPC: 0.279739 (Simulation time: 2 hr 41 min 25 sec) 
Heartbeat CPU 0 instructions: 1300000000 cycles: 3004034784 heartbeat IPC: 0.269585 cumulative IPC: 0.279607 (Simulation time: 2 hr 42 min 39 sec) 
Heartbeat CPU 0 instructions: 1310000003 cycles: 3036814721 heartbeat IPC: 0.305065 cumulative IPC: 0.279896 (Simulation time: 2 hr 43 min 48 sec) 
Heartbeat CPU 0 instructions: 1320000002 cycles: 3074205513 heartbeat IPC: 0.267446 cumulative IPC: 0.279737 (Simulation time: 2 hr 45 min 3 sec) 
Heartbeat CPU 0 instructions: 1330000000 cycles: 3110043238 heartbeat IPC: 0.279036 cumulative IPC: 0.279728 (Simulation time: 2 hr 46 min 22 sec) 
Heartbeat CPU 0 instructions: 1340000000 cycles: 3146475502 heartbeat IPC: 0.274482 cumulative IPC: 0.279665 (Simulation time: 2 hr 47 min 54 sec) 
Heartbeat CPU 0 instructions: 1350000002 cycles: 3181551870 heartbeat IPC: 0.285092 cumulative IPC: 0.279727 (Simulation time: 2 hr 49 min 7 sec) 
Heartbeat CPU 0 instructions: 1360000001 cycles: 3214358969 heartbeat IPC: 0.304812 cumulative IPC: 0.279995 (Simulation time: 2 hr 50 min 15 sec) 
Heartbeat CPU 0 instructions: 1370000003 cycles: 3251076093 heartbeat IPC: 0.272353 cumulative IPC: 0.279905 (Simulation time: 2 hr 51 min 29 sec) 
Heartbeat CPU 0 instructions: 1380000003 cycles: 3288566632 heartbeat IPC: 0.266734 cumulative IPC: 0.279748 (Simulation time: 2 hr 52 min 43 sec) 
Heartbeat CPU 0 instructions: 1390000003 cycles: 3322843660 heartbeat IPC: 0.291741 cumulative IPC: 0.279877 (Simulation time: 2 hr 53 min 52 sec) 
Heartbeat CPU 0 instructions: 1400000000 cycles: 3358868624 heartbeat IPC: 0.277585 cumulative IPC: 0.279852 (Simulation time: 2 hr 55 min 3 sec) 
Heartbeat CPU 0 instructions: 1410000000 cycles: 3392731539 heartbeat IPC: 0.295308 cumulative IPC: 0.280013 (Simulation time: 2 hr 56 min 11 sec) 
Heartbeat CPU 0 instructions: 1420000001 cycles: 3428179302 heartbeat IPC: 0.282105 cumulative IPC: 0.280035 (Simulation time: 2 hr 57 min 23 sec) 
Heartbeat CPU 0 instructions: 1430000004 cycles: 3465706904 heartbeat IPC: 0.266471 cumulative IPC: 0.279882 (Simulation time: 2 hr 58 min 38 sec) 
Heartbeat CPU 0 instructions: 1440000000 cycles: 3499863974 heartbeat IPC: 0.292765 cumulative IPC: 0.280013 (Simulation time: 2 hr 59 min 52 sec) 
Heartbeat CPU 0 instructions: 1450000003 cycles: 3533472883 heartbeat IPC: 0.29754 cumulative IPC: 0.280187 (Simulation time: 3 hr 1 min 2 sec) 
Heartbeat CPU 0 instructions: 1460000001 cycles: 3569700695 heartbeat IPC: 0.276031 cumulative IPC: 0.280143 (Simulation time: 3 hr 2 min 14 sec) 
Heartbeat CPU 0 instructions: 1470000001 cycles: 3606465804 heartbeat IPC: 0.271997 cumulative IPC: 0.280057 (Simulation time: 3 hr 3 min 27 sec) 
Heartbeat CPU 0 instructions: 1480000001 cycles: 3643071873 heartbeat IPC: 0.273179 cumulative IPC: 0.279985 (Simulation time: 3 hr 4 min 40 sec) 
Heartbeat CPU 0 instructions: 1490000000 cycles: 3677864808 heartbeat IPC: 0.287415 cumulative IPC: 0.280058 (Simulation time: 3 hr 5 min 53 sec) 
Heartbeat CPU 0 instructions: 1500000002 cycles: 3715377232 heartbeat IPC: 0.266578 cumulative IPC: 0.279916 (Simulation time: 3 hr 7 min 8 sec) 
Heartbeat CPU 0 instructions: 1510000003 cycles: 3751522250 heartbeat IPC: 0.276663 cumulative IPC: 0.279884 (Simulation time: 3 hr 8 min 20 sec) 
Heartbeat CPU 0 instructions: 1520000004 cycles: 3786893646 heartbeat IPC: 0.282714 cumulative IPC: 0.279911 (Simulation time: 3 hr 9 min 31 sec) 
Heartbeat CPU 0 instructions: 1530000000 cycles: 3821391877 heartbeat IPC: 0.28987 cumulative IPC: 0.280005 (Simulation time: 3 hr 10 min 42 sec) 
Heartbeat CPU 0 instructions: 1540000004 cycles: 3857135749 heartbeat IPC: 0.279768 cumulative IPC: 0.280002 (Simulation time: 3 hr 11 min 53 sec) 
Heartbeat CPU 0 instructions: 1550000000 cycles: 3894669103 heartbeat IPC: 0.26643 cumulative IPC: 0.279866 (Simulation time: 3 hr 13 min 7 sec) 
Heartbeat CPU 0 instructions: 1560000000 cycles: 3929901228 heartbeat IPC: 0.283832 cumulative IPC: 0.279903 (Simulation time: 3 hr 14 min 20 sec) 
Heartbeat CPU 0 instructions: 1570000000 cycles: 3967333386 heartbeat IPC: 0.26715 cumulative IPC: 0.279779 (Simulation time: 3 hr 15 min 34 sec) 
Heartbeat CPU 0 instructions: 1580000000 cycles: 4005878296 heartbeat IPC: 0.259438 cumulative IPC: 0.279576 (Simulation time: 3 hr 16 min 51 sec) 
Heartbeat CPU 0 instructions: 1590000003 cycles: 4036533453 heartbeat IPC: 0.326209 cumulative IPC: 0.279943 (Simulation time: 3 hr 17 min 55 sec) 
Heartbeat CPU 0 instructions: 1600000002 cycles: 4072694709 heartbeat IPC: 0.276539 cumulative IPC: 0.279911 (Simulation time: 3 hr 19 min 6 sec) 
Heartbeat CPU 0 instructions: 1610000003 cycles: 4104373631 heartbeat IPC: 0.315667 cumulative IPC: 0.280197 (Simulation time: 3 hr 20 min 11 sec) 
Heartbeat CPU 0 instructions: 1620000003 cycles: 4139981472 heartbeat IPC: 0.280837 cumulative IPC: 0.280203 (Simulation time: 3 hr 21 min 21 sec) 
Heartbeat CPU 0 instructions: 1630000001 cycles: 4175405179 heartbeat IPC: 0.282297 cumulative IPC: 0.280221 (Simulation time: 3 hr 22 min 32 sec) 
Heartbeat CPU 0 instructions: 1640000000 cycles: 4213911605 heartbeat IPC: 0.259697 cumulative IPC: 0.280027 (Simulation time: 3 hr 23 min 49 sec) 
Heartbeat CPU 0 instructions: 1650000000 cycles: 4251524597 heartbeat IPC: 0.265866 cumulative IPC: 0.279898 (Simulation time: 3 hr 25 min 4 sec) 
Heartbeat CPU 0 instructions: 1660000000 cycles: 4288319954 heartbeat IPC: 0.271773 cumulative IPC: 0.279826 (Simulation time: 3 hr 26 min 16 sec) 
Heartbeat CPU 0 instructions: 1670000001 cycles: 4323236254 heartbeat IPC: 0.286399 cumulative IPC: 0.27988 (Simulation time: 3 hr 27 min 28 sec) 
Heartbeat CPU 0 instructions: 1680000000 cycles: 4358683399 heartbeat IPC: 0.28211 cumulative IPC: 0.279899 (Simulation time: 3 hr 28 min 39 sec) 
Heartbeat CPU 0 instructions: 1690000004 cycles: 4396224780 heartbeat IPC: 0.266373 cumulative IPC: 0.27978 (Simulation time: 3 hr 29 min 52 sec) 
Heartbeat CPU 0 instructions: 1700000000 cycles: 4431943523 heartbeat IPC: 0.279965 cumulative IPC: 0.279781 (Simulation time: 3 hr 31 min 2 sec) 
Heartbeat CPU 0 instructions: 1710000000 cycles: 4465612701 heartbeat IPC: 0.297008 cumulative IPC: 0.279916 (Simulation time: 3 hr 32 min 13 sec) 
Heartbeat CPU 0 instructions: 1720000000 cycles: 4500553454 heartbeat IPC: 0.286199 cumulative IPC: 0.279966 (Simulation time: 3 hr 33 min 22 sec) 
Heartbeat CPU 0 instructions: 1730000002 cycles: 4536632805 heartbeat IPC: 0.277167 cumulative IPC: 0.279943 (Simulation time: 3 hr 34 min 32 sec) 
Heartbeat CPU 0 instructions: 1740000000 cycles: 4569709659 heartbeat IPC: 0.302326 cumulative IPC: 0.28011 (Simulation time: 3 hr 35 min 38 sec) 
Heartbeat CPU 0 instructions: 1750000001 cycles: 4605694707 heartbeat IPC: 0.277893 cumulative IPC: 0.280092 (Simulation time: 3 hr 36 min 50 sec) 
Heartbeat CPU 0 instructions: 1760000001 cycles: 4641487036 heartbeat IPC: 0.279389 cumulative IPC: 0.280087 (Simulation time: 3 hr 38 min 3 sec) 
Heartbeat CPU 0 instructions: 1770000001 cycles: 4677499101 heartbeat IPC: 0.277685 cumulative IPC: 0.280068 (Simulation time: 3 hr 39 min 16 sec) 
Heartbeat CPU 0 instructions: 1780000002 cycles: 4714579197 heartbeat IPC: 0.269686 cumulative IPC: 0.279983 (Simulation time: 3 hr 40 min 30 sec) 
Heartbeat CPU 0 instructions: 1790000000 cycles: 4752300829 heartbeat IPC: 0.2651 cumulative IPC: 0.279862 (Simulation time: 3 hr 41 min 44 sec) 
Heartbeat CPU 0 instructions: 1800000003 cycles: 4786149054 heartbeat IPC: 0.295437 cumulative IPC: 0.279975 (Simulation time: 3 hr 42 min 53 sec) 
Heartbeat CPU 0 instructions: 1810000000 cycles: 4823217102 heartbeat IPC: 0.269774 cumulative IPC: 0.279894 (Simulation time: 3 hr 44 min 7 sec) 
Heartbeat CPU 0 instructions: 1820000001 cycles: 4860519089 heartbeat IPC: 0.268082 cumulative IPC: 0.279801 (Simulation time: 3 hr 45 min 24 sec) 
Heartbeat CPU 0 instructions: 1830000001 cycles: 4896712650 heartbeat IPC: 0.276292 cumulative IPC: 0.279774 (Simulation time: 3 hr 46 min 37 sec) 
Heartbeat CPU 0 instructions: 1840000001 cycles: 4932540196 heartbeat IPC: 0.279115 cumulative IPC: 0.279769 (Simulation time: 3 hr 47 min 52 sec) 
Heartbeat CPU 0 instructions: 1850000000 cycles: 4970111736 heartbeat IPC: 0.266159 cumulative IPC: 0.279663 (Simulation time: 3 hr 49 min 7 sec) 
Heartbeat CPU 0 instructions: 1860000002 cycles: 5005488043 heartbeat IPC: 0.282675 cumulative IPC: 0.279685 (Simulation time: 3 hr 50 min 17 sec) 
Heartbeat CPU 0 instructions: 1870000001 cycles: 5041435949 heartbeat IPC: 0.27818 cumulative IPC: 0.279674 (Simulation time: 3 hr 51 min 29 sec) 
Heartbeat CPU 0 instructions: 1880000000 cycles: 5077468546 heartbeat IPC: 0.277526 cumulative IPC: 0.279659 (Simulation time: 3 hr 52 min 41 sec) 
Heartbeat CPU 0 instructions: 1890000001 cycles: 5112160943 heartbeat IPC: 0.288248 cumulative IPC: 0.279719 (Simulation time: 3 hr 53 min 51 sec) 
Heartbeat CPU 0 instructions: 1900000001 cycles: 5148682754 heartbeat IPC: 0.273809 cumulative IPC: 0.279675 (Simulation time: 3 hr 55 min 5 sec) 
Heartbeat CPU 0 instructions: 1910000001 cycles: 5184875069 heartbeat IPC: 0.276302 cumulative IPC: 0.279651 (Simulation time: 3 hr 56 min 17 sec) 
Heartbeat CPU 0 instructions: 1920000002 cycles: 5221539791 heartbeat IPC: 0.272742 cumulative IPC: 0.279601 (Simulation time: 3 hr 57 min 32 sec) 
Heartbeat CPU 0 instructions: 1930000000 cycles: 5255944285 heartbeat IPC: 0.29066 cumulative IPC: 0.279676 (Simulation time: 3 hr 58 min 41 sec) 
Heartbeat CPU 0 instructions: 1940000000 cycles: 5291774952 heartbeat IPC: 0.279091 cumulative IPC: 0.279672 (Simulation time: 3 hr 59 min 53 sec) 
Heartbeat CPU 0 instructions: 1950000000 cycles: 5329305949 heartbeat IPC: 0.266446 cumulative IPC: 0.279576 (Simulation time: 4 hr 1 min 10 sec) 
Heartbeat CPU 0 instructions: 1960000000 cycles: 5364874546 heartbeat IPC: 0.281147 cumulative IPC: 0.279587 (Simulation time: 4 hr 2 min 22 sec) 
Heartbeat CPU 0 instructions: 1970000001 cycles: 5400197472 heartbeat IPC: 0.283102 cumulative IPC: 0.27961 (Simulation time: 4 hr 3 min 31 sec) 
Heartbeat CPU 0 instructions: 1980000000 cycles: 5435365205 heartbeat IPC: 0.284352 cumulative IPC: 0.279642 (Simulation time: 4 hr 4 min 41 sec) 
Heartbeat CPU 0 instructions: 1990000000 cycles: 5470289726 heartbeat IPC: 0.286332 cumulative IPC: 0.279686 (Simulation time: 4 hr 5 min 50 sec) 
*** Reached end of trace: traces/483.xalancbmk-127B.champsimtrace.xz
Heartbeat CPU 0 instructions: 2000000001 cycles: 5505845831 heartbeat IPC: 0.281246 cumulative IPC: 0.279696 (Simulation time: 4 hr 6 min 59 sec) 
Finished CPU 0 instructions: 1500000000 cycles: 5362966310 cumulative IPC: 0.279696 (Simulation time: 4 hr 6 min 59 sec) 

ChampSim completed all CPUs

Region of Interest Statistics

CPU 0 cumulative IPC: 0.279696 instructions: 1500000000 cycles: 5362966310
cpu0_DTLB TOTAL     ACCESS:  331879446  HIT:  325391040  MISS:    6488406
cpu0_DTLB LOAD      ACCESS:  306536494  HIT:  300167478  MISS:    6369016
cpu0_DTLB RFO       ACCESS:   25342952  HIT:   25223562  MISS:     119390
cpu0_DTLB PREFETCH  ACCESS:          0  HIT:          0  MISS:          0
cpu0_DTLB WRITEBACK ACCESS:          0  HIT:          0  MISS:          0
cpu0_DTLB TRANSLATION ACCESS:          0  HIT:          0  MISS:          0
cpu0_DTLB PREFETCH  REQUESTED:          0  ISSUED:          0  USEFUL:          0  USELESS:          0
cpu0_DTLB AVERAGE MISS LATENCY: 41.3479 cycles
cpu0_ITLB TOTAL     ACCESS:  204456118  HIT:  204071730  MISS:     384388
cpu0_ITLB LOAD      ACCESS:  204456118  HIT:  204071730  MISS:     384388
cpu0_ITLB RFO       ACCESS:          0  HIT:          0  MISS:          0
cpu0_ITLB PREFETCH  ACCESS:          0  HIT:          0  MISS:          0
cpu0_ITLB WRITEBACK ACCESS:          0  HIT:          0  MISS:          0
cpu0_ITLB TRANSLATION ACCESS:          0  HIT:          0  MISS:          0
cpu0_ITLB PREFETCH  REQUESTED:          0  ISSUED:          0  USEFUL:          0  USELESS:          0
cpu0_ITLB AVERAGE MISS LATENCY: 10.82 cycles
cpu0_L1I TOTAL     ACCESS:   10356265  HIT:    8489540  MISS:    1866725
cpu0_L1I LOAD      ACCESS:   10356265  HIT:    8489540  MISS:    1866725
cpu0_L1I RFO       ACCESS:          0  HIT:          0  MISS:          0
cpu0_L1I PREFETCH  ACCESS:          0  HIT:          0  MISS:          0
cpu0_L1I WRITEBACK ACCESS:          0  HIT:          0  MISS:          0
cpu0_L1I TRANSLATION ACCESS:          0  HIT:          0  MISS:          0
cpu0_L1I PREFETCH  REQUESTED:          0  ISSUED:          0  USEFUL:          0  USELESS:          0
cpu0_L1I AVERAGE MISS LATENCY: 77.5144 cycles
cpu0_STLB TOTAL     ACCESS:    6872794  HIT:    1200407  MISS:    5672387
cpu0_STLB LOAD      ACCESS:    6753404  HIT:    1100156  MISS:    5653248
cpu0_STLB RFO       ACCESS:     119390  HIT:     100251  MISS:      19139
cpu0_STLB PREFETCH  ACCESS:          0  HIT:          0  MISS:          0
cpu0_STLB WRITEBACK ACCESS:          0  HIT:          0  MISS:          0
cpu0_STLB TRANSLATION ACCESS:          0  HIT:          0  MISS:          0
cpu0_STLB PREFETCH  REQUESTED:          0  ISSUED:          0  USEFUL:          0  USELESS:          0
cpu0_STLB AVERAGE MISS LATENCY: 37.0369 cycles
cpu0_L1D TOTAL     ACCESS:  288213362  HIT:  246563628  MISS:   41649734
cpu0_L1D LOAD      ACCESS:  233550898  HIT:  192191264  MISS:   41359634
cpu0_L1D RFO       ACCESS:   49719030  HIT:   49516660  MISS:     202370
cpu0_L1D PREFETCH  ACCESS:          0  HIT:          0  MISS:          0
cpu0_L1D WRITEBACK ACCESS:          0  HIT:          0  MISS:          0
cpu0_L1D TRANSLATION ACCESS:    4943434  HIT:    4855704  MISS:      87730
cpu0_L1D PREFETCH  REQUESTED:          0  ISSUED:          0  USEFUL:          0  USELESS:          0
cpu0_L1D AVERAGE MISS LATENCY: 181.207 cycles
cpu0_L2C TOTAL     ACCESS:   43932149  HIT:    2002247  MISS:   41929902
cpu0_L2C LOAD      ACCESS:   43226298  HIT:    1473410  MISS:   41752888
cpu0_L2C RFO       ACCESS:     202366  HIT:      49280  MISS:     153086
cpu0_L2C PREFETCH  ACCESS:          0  HIT:          0  MISS:          0
cpu0_L2C WRITEBACK ACCESS:     415755  HIT:     410073  MISS:       5682
cpu0_L2C TRANSLATION ACCESS:      87730  HIT:      69484  MISS:      18246
cpu0_L2C PREFETCH  REQUESTED:          0  ISSUED:          0  USEFUL:          0  USELESS:          0
cpu0_L2C AVERAGE MISS LATENCY: 171.91 cycles
LLC TOTAL     ACCESS:   42217127  HIT:    2153375  MISS:   40063752
LLC LOAD      ACCESS:   41752888  HIT:    1838076  MISS:   39914812
LLC RFO       ACCESS:     153086  HIT:      18827  MISS:     134259
LLC PREFETCH  ACCESS:          0  HIT:          0  MISS:          0
LLC WRITEBACK ACCESS:     292907  HIT:     289073  MISS:       3834
LLC TRANSLATION ACCESS:      18246  HIT:       7399  MISS:      10847
LLC PREFETCH  REQUESTED:          0  ISSUED:          0  USEFUL:          0  USELESS:          0
LLC AVERAGE MISS LATENCY: 157.942 cycles
~~~~~~~~~~Reuse Distance Profiler output~~~~~~~~~~
0	65533120	43175536
1	45563232	36074624
2	33465488	31626816
3	8803872	7176208
4	11288304	9906768
5	13538896	6988080
6	6109232	5550144
7	2511504	1946448
8	2111920	1556480
9	1382816	929744
10	1684784	1167872
11	3215584	2049856
12	3552816	979488
13	7652032	5164928
14	1856080	451824
15	1251776	742656
16	979296	830432
17	1257248	1141280
18	1773488	1662704
19	4553040	4462384
20	505392	400336
21	371152	262816
22	271936	165200
23	319216	198272
24	418256	294208
25	667008	554576
26	1910224	1800144
27	4716624	4611536
28	4197664	3937600
29	2519152	1659936
30	3060528	821696
31	2640384	602704
32	1670928	687568
33	1248192	670576
34	1090896	656480
35	1114496	681584
36	1162016	815552
37	1765360	1587344
38	2006976	1907088
39	2092032	2027920
40	6589712	6541632
41	16931056	16892464
42	16108016	16066224
43	8142848	8112480
44	4206832	4180160
45	2979488	2950432
46	2807120	2774768
47	2458704	2412720
48	2150592	2101984
49	1797776	1747392
50	1663840	1630544
51	1150960	1113136
52	517584	482704
53	213504	171968
54	129728	90000
55	143216	101952
56	226976	172368
57	267904	220656
58	316992	279456
59	287600	259632
60	275504	247376
61	234880	202816
62	198224	168352
63	156336	131872
64	232544	183888
66	144256	104336
68	114160	82528
70	105488	79280
72	96176	73936
74	121376	105520
76	378512	364464
78	540880	527584
80	449824	435520
82	467872	454064
84	263072	250224
86	182016	170992
88	209536	199440
90	180800	169456
92	118544	107264
94	67552	57680
96	51824	40112
98	41984	30816
100	40128	31312
102	42976	35632
104	33920	26352
106	34864	25568
108	33600	25264
110	35664	27360
112	30848	21312
114	31200	19360
116	26016	17488
118	32512	23648
120	36896	27136
122	36880	26576
124	45360	33648
126	51328	39072
128	97280	80144
132	102384	87296
136	64192	51648
140	48432	37584
144	46416	38000
148	47760	39184
152	42624	35216
156	31808	26304
160	38704	31600
164	49360	42080
168	51520	42304
172	50528	41408
176	47808	40400
180	35792	28176
184	34320	25744
188	33664	25312
192	34448	25616
196	29280	22688
200	23792	19424
204	28592	24304
208	34016	29360
212	38672	33216
216	41552	36320
220	35104	29456
224	34224	27488
228	35824	29200
232	31280	26240
236	32544	28464
240	30880	26896
244	26896	22896
248	30880	27056
252	33600	29120
256	68400	60944
264	46432	41152
272	47456	41120
280	61392	55520
288	52832	48160
296	50288	44816
304	39072	33328
312	32224	27216
320	32048	27696
328	28704	22992
336	33312	28032
344	34528	30272
352	21168	18032
360	21264	17984
368	20240	18224
376	28944	26784
384	38528	35616
392	23008	20496
400	23520	20976
408	22416	20480
416	21424	19600
424	26288	24384
432	23200	20432
440	21744	18768
448	22240	17984
456	22112	18256
464	23936	20528
472	21520	18992
480	15872	13936
488	18688	16864
496	16816	15152
504	22496	20464
512	47424	44128
528	31264	28224
544	32480	28752
560	30272	26688
576	24944	22000
592	32144	25264
608	22208	16208
624	28928	21952
640	29968	24608
656	24928	21792
672	25904	23856
688	23072	21216
704	23856	21664
720	28272	23008
736	27632	20736
752	27616	21568
768	23744	17296
784	23504	17904
800	30976	24832
816	26720	20240
832	21264	15760
848	19696	16704
864	15408	12880
880	17920	15520
896	18832	16128
912	18320	15808
928	20544	16512
944	17136	13632
960	16336	13840
976	16000	12720
992	12576	9680
1008	15312	13104
1024	30560	25920
1056	27952	22704
1088	32752	29472
1120	27088	23536
1152	22704	19760
1184	26720	22960
1216	24832	22304
1248	24768	20432
1280	26848	22528
1312	26784	23152
1344	28480	24144
1376	30256	25472
1408	29984	25392
1440	31632	28576
1472	26624	23680
1504	28080	23600
1536	30128	25968
1568	42400	37968
1600	47200	41840
1632	42672	37760
1664	40832	36096
1696	43664	39152
1728	50256	45808
1760	47488	43168
1792	43152	38432
1824	44336	39632
1856	45696	41552
1888	37456	34256
1920	36736	33248
1952	34400	31024
1984	35136	30592
2016	35792	31568
2048	83632	75040
2112	115776	105392
2176	79088	71344
2240	72528	65168
2304	88800	80624
2368	85616	78768
2432	72864	66400
2496	61536	55264
2560	67040	57712
2624	66592	59232
2688	60656	54992
2752	73696	68704
2816	93520	83200
2880	95056	82784
2944	70848	61552
3008	59488	50896
3072	53536	46960
3136	55888	50560
3200	56448	50720
3264	52288	45760
3328	46240	40048
3392	46704	42912
3456	52128	46992
3520	66816	56496
3584	31040	26080
3648	26208	21296
3712	23232	20240
3776	25264	22320
3840	32640	29776
3904	28448	25216
3968	19456	15952
4032	17104	14496
4096	34000	28192
4224	32752	27552
4352	26800	21952
4480	21472	17008
4608	24432	19824
4736	31152	26512
4864	27120	22576
4992	36608	32848
5120	31840	28720
5248	21888	18832
5376	17600	15600
5504	21264	18752
5632	17584	15632
5760	23136	20848
5888	16448	15056
6016	22592	20512
6144	17168	15344
6272	13136	11344
6400	9072	7696
6528	5584	4160
6656	6544	5072
6784	10624	9520
6912	9744	8512
7040	6944	6176
7168	11296	9952
7296	9792	8192
7424	9232	7952
7552	11632	10416
7680	7728	6912
7808	9648	8464
7936	5376	4592
8064	3136	2816
8192	8080	6960
8448	5440	4592
8704	6304	5136
8960	4960	4352
9216	4256	3808
9472	5072	4704
9728	4432	4048
9984	4400	3456
10240	3600	3120
10496	5344	4544
10752	6336	4976
11008	8976	7456
11264	3568	2800
11520	3072	2416
11776	2048	1696
12032	1984	1648
12288	1856	1584
12544	1712	1472
12800	1680	1488
13056	1696	1360
13312	1488	1248
13568	1088	896
13824	1168	944
14080	1280	1104
14336	1344	1184
14592	1536	1328
14848	2656	2432
15104	5760	5504
15360	3088	2848
15616	2336	2064
15872	1536	1344
16128	1424	1296
16384	2192	1856
16896	3696	3104
17408	2208	1616
17920	3024	2496
18432	2464	2032
18944	2320	2000
19456	2256	2000
19968	1600	1216
20480	1984	1792
20992	2080	1904
21504	2064	1856
22016	1856	1696
22528	2176	1728
23040	3024	2448
23552	2352	1984
24064	2576	2352
24576	2544	2352
25088	2784	2528
25600	3792	3424
26112	4992	4800
26624	2832	2592
27136	4864	4096
27648	2464	1776
28160	4160	3664
28672	3744	3248
29184	2784	2448
29696	2544	2160
30208	1936	1760
30720	1200	1056
31232	1264	1232
31744	1760	1472
32256	1248	1024
32768	2096	1744
33792	3792	3504
34816	2032	1872
35840	2752	2544
36864	2656	2496
37888	992	848
38912	4032	3776
39936	4080	3936
40960	1072	896
41984	1088	976
43008	2768	2640
44032	3552	3360
45056	4224	4128
46080	6304	6000
47104	9760	9584
48128	3360	3088
49152	1840	1696
50176	1312	1216
51200	2624	2496
52224	4384	4160
53248	12816	12672
54272	1088	992
55296	1616	1408
56320	2624	2432
57344	3760	3648
58368	1072	992
59392	1600	1424
60416	1312	1056
61440	1216	1104
62464	784	704
63488	1216	1104
64512	6480	6368
65536	8112	7888
67584	1728	1632
69632	9984	9728
71680	2416	2304
73728	16896	16464
75776	20880	20560
77824	16784	16544
79872	14608	14368
81920	22848	22432
83968	10800	10528
86016	18800	18512
88064	11088	10928
90112	11824	11584
92160	2896	2672
94208	20944	20576
96256	15120	14896
98304	26656	26448
100352	13536	13392
102400	13680	13392
104448	2272	2128
106496	3632	3488
108544	35776	35488
110592	10752	10528
112640	2496	2288
114688	28992	28864
116736	41280	41024
118784	39840	39680
120832	2016	1952
122880	10720	10560
124928	14960	14848
126976	2288	2112
129024	18576	18320
131072	77184	76752
135168	39296	38944
139264	53456	53120
143360	27296	26928
147456	5216	4880
151552	9568	9344
155648	35904	35648
159744	81808	81408
163840	17072	16864
167936	88464	87264
172032	63424	61984
176128	74656	71120
180224	25216	23584
184320	59296	58032
188416	89312	87200
192512	82944	80608
196608	142048	140144
200704	135216	134000
204800	133824	132736
208896	108512	107744
212992	71376	70912
217088	55344	54592
221184	132656	131408
225280	114144	111680
229376	97952	95536
233472	115072	114080
237568	107872	106960
241664	32928	32256
245760	158400	156768
249856	72848	71280
253952	119712	118272
258048	35952	35152
262144	314752	312976
270336	153744	153008
278528	57568	56912
286720	230752	229664
294912	183744	182976
303104	93968	93392
311296	60944	60448
319488	164784	164224
327680	85264	84880
335872	231024	230480
344064	281664	281232
352256	162432	162064
360448	215312	214816
368640	106368	105872
376832	132032	131392
385024	169504	168880
393216	179136	178480
401408	290064	289520
409600	202000	201696
417792	273184	272864
425984	311456	311104
434176	220032	219504
442368	333488	333120
450560	201088	200800
458752	336400	335904
466944	251088	250688
475136	158480	158112
483328	209488	209072
491520	270544	270208
499712	313008	312544
507904	364608	364160
516096	152080	151936
524288	143616	142976
540672	157664	156992
557056	521824	520832
573440	251312	250864
589824	481664	480816
606208	153840	153568
622592	862048	861424
638976	343472	343008
655360	610240	609664
671744	349408	348992
688128	386240	385456
704512	276432	275392
720896	477376	476800
737280	458560	457840
753664	497744	497232
770048	428896	428304
786432	259600	259120
802816	337168	336832
819200	604384	603936
835584	233920	233376
851968	461856	461360
868352	424496	424016
884736	415600	415280
901120	266672	266352
917504	234736	232064
933888	654560	652192
950272	4370192	4367712
966656	454448	454080
983040	509216	508960
999424	426672	426080
1015808	332288	331536
1032192	1573456	1572384
1048576	1308256	1307440
1081344	847040	846544
1114112	948736	948192
1146880	723136	722912
1179648	460896	460768
1212416	582544	582400
1245184	417696	417600
1277952	704320	704128
1310720	548640	548400
1343488	331280	331024
1376256	342080	341936
1409024	331984	331728
1441792	569424	569152
1474560	483552	483248
1507328	254416	254128
1540096	536480	536176
1572864	250592	250464
1605632	529040	528912
1638400	1377120	1376704
1671168	723568	723504
1703936	402960	402896
1736704	392560	392336
1769472	728624	728464
1802240	136080	136048
1835008	67024	66992
1867776	216144	216064
1900544	203824	203776
1933312	340256	340224
1966080	449728	449648
1998848	246032	245936
2031616	157920	157728
2064384	315904	315888
2097152	424192	423744
2162688	397216	397024
2228224	243424	243328
2293760	365584	365360
2359296	201520	201184
2424832	398480	398256
2490368	148528	148400
2555904	428416	428272
2621440	158144	157936
2686976	394544	394384
2752512	232288	232128
2818048	377584	377344
2883584	362320	362144
2949120	208176	207968
3014656	96240	96080
3080192	106144	105808
3145728	224192	224160
3211264	156352	156224
3276800	133360	133088
3342336	203536	203392
3407872	147888	147840
3473408	132608	132544
3538944	89392	89184
3604480	88720	88592
3670016	152176	152000
3735552	148960	148752
3801088	69280	69152
3866624	228880	228656
3932160	91424	90736
3997696	115968	115600
4063232	27232	27072
4128768	68224	67888
4194304	417984	417344
4325376	246560	246272
4456448	153888	153824
4587520	83856	83776
4718592	147920	147856
4849664	164400	164032
4980736	74896	74160
5111808	100160	99920
5242880	212112	211408
5373952	144368	143680
5505024	125088	124992
5636096	13664	13568
5767168	65424	65264
5898240	6192	5952
6029312	116384	116240
6160384	89024	88912
6291456	164608	164208
6422528	8336	8096
6553600	42032	41760
6684672	106752	106512
6815744	107760	107424
6946816	38416	38352
7077888	32864	32720
7208960	60160	59904
7340032	62304	62144
7471104	108480	108128
7602176	5424	5152
7733248	4064	3888
7864320	36944	36848
7995392	16176	15936
8126464	3504	3200
8257536	3216	2832
8388608	24688	23920
8650752	74736	73904
8912896	75008	74784
9175040	11728	10832
9437184	66768	65856
9699328	38592	38464
9961472	79888	79232
10223616	11568	10928
10485760	20432	20048
10747904	19600	19104
11010048	36880	36208
11272192	14368	13984
11534336	49232	49056
11796480	29424	29008
12058624	4576	4464
12320768	4864	4288
12582912	5424	4912
12845056	6368	6240
13107200	5520	5248
13369344	60000	59600
13631488	4384	4224
13893632	3616	2992
14155776	11536	10992
14417920	4208	3952
14680064	4272	3264
14942208	20464	20288
15204352	4896	4576
15466496	4096	3328
15728640	3936	3648
15990784	3952	3376
16252928	3712	3472
16515072	5600	4448
16777216	9296	5984
17301504	6576	6256
17825792	8736	5280
18350080	7280	7024
18874368	10464	6320
19398656	8016	6448
19922944	6512	5760
20447232	8656	7200
20971520	8448	6944
21495808	6640	6400
22020096	18816	18560
22544384	6528	6096
23068672	6384	5520
23592960	5248	4432
24117248	8096	5408
24641536	6272	3376
25165824	6960	6208
25690112	5440	5184
26214400	5744	5360
26738688	5632	5216
27262976	4576	3920
27787264	5088	4800
28311552	6464	5856
28835840	4528	4176
29360128	3712	3600
29884416	4208	3904
30408704	5168	4592
30932992	6096	5488
31457280	4080	3792
31981568	4480	4160
32505856	4032	2768
33030144	3616	3216
33554432	7888	7264
34603008	8688	8272
35651584	7904	7056
36700160	6800	6256
37748736	8000	7520
38797312	6848	6448
39845888	9728	8768
40894464	7440	5568
41943040	4992	4800
42991616	7056	6752
44040192	5264	4912
45088768	6624	6144
46137344	5920	5776
47185920	4816	4688
48234496	6592	5856
49283072	5920	5648
50331648	5920	5872
51380224	6592	6368
52428800	7232	7120
53477376	4368	4336
54525952	4160	4000
55574528	6384	6352
56623104	4672	4640
57671680	5552	5488
58720256	4928	4912
59768832	4608	4592
60817408	5632	5456
61865984	4432	4432
62914560	3360	3360
63963136	4352	4336
65011712	4496	4480
66060288	5312	5024
67108864	7136	7104
69206016	6720	6688
71303168	6352	6304
73400320	7328	7328
75497472	9040	9040
77594624	6464	6464
79691776	6864	6864
81788928	5776	5776
83886080	5696	5696
85983232	5136	5120
88080384	3872	3872
90177536	4640	4640
92274688	5264	5232
94371840	4464	4464
96468992	4240	4224
98566144	4048	4048
100663296	3840	3840
102760448	3840	3840
104857600	3312	3312
106954752	3536	3536
109051904	3568	3568
111149056	2672	2672
113246208	3216	3216
115343360	3312	3312
117440512	3408	3408
119537664	2608	2608
121634816	2992	2992
123731968	2224	2224
125829120	2432	2432
127926272	2080	2080
130023424	2096	2096
132120576	1904	1904
134217728	5376	5376
138412032	4032	4032
142606336	3040	3040
146800640	2672	2672
150994944	3424	3424
155189248	2816	2816
159383552	2896	2896
163577856	1664	1664
167772160	1888	1888
171966464	1872	1872
176160768	1584	1584
180355072	1696	1696
184549376	1472	1472
188743680	1904	1904
192937984	2240	2240
197132288	1232	1232
201326592	1408	1408
205520896	832	832
209715200	1024	1024
213909504	1440	1440
218103808	1120	1120
222298112	832	832
226492416	784	784
230686720	464	464
234881024	768	768
239075328	656	656
243269632	640	640
247463936	448	448
251658240	464	464
255852544	560	560
260046848	240	240
264241152	320	320
268435456	416	416
276824064	656	656
285212672	608	608
293601280	288	288
301989888	208	208
310378496	448	448
318767104	432	432
327155712	112	112
335544320	112	112
343932928	80	80
352321536	112	112
360710144	32	32
369098752	16	16
377487360	48	48
385875968	0	0
394264576	0	0
402653184	0	0
411041792	0	0
419430400	0	0
427819008	0	0
436207616	0	0
444596224	0	0
452984832	0	0
461373440	0	0
469762048	0	0
478150656	0	0
486539264	0	0
494927872	0	0
503316480	0	0
511705088	0	0
520093696	0	0
528482304	0	0
536870912	0	0
553648128	0	0
570425344	0	0
587202560	0	0
603979776	0	0
620756992	0	0
637534208	0	0
654311424	0	0
671088640	0	0
687865856	0	0
704643072	0	0
721420288	0	0
738197504	0	0
754974720	0	0
771751936	0	0
788529152	0	0
805306368	0	0
822083584	0	0
838860800	0	0
855638016	0	0
872415232	0	0
889192448	0	0
905969664	0	0
922746880	0	0
939524096	0	0
956301312	0	0
973078528	0	0
989855744	0	0
1006632960	0	0
1023410176	0	0
1040187392	0	0
1056964608	0	0
1073741824	0	0
1107296256	0	0
1140850688	0	0
1174405120	0	0
1207959552	0	0
1241513984	0	0
1275068416	0	0
1308622848	0	0
1342177280	0	0
1375731712	0	0
1409286144	0	0
1442840576	0	0
1476395008	0	0
1509949440	0	0
1543503872	0	0
1577058304	0	0
1610612736	0	0
1644167168	0	0
1677721600	0	0
1711276032	0	0
1744830464	0	0
1778384896	0	0
1811939328	0	0
1845493760	0	0
1879048192	0	0
1912602624	0	0
1946157056	0	0
1979711488	0	0
2013265920	0	0
2046820352	0	0
2080374784	0	0
2113929216	0	0
2147483648	0	0
2214592512	0	0
2281701376	0	0
2348810240	0	0
2415919104	0	0
2483027968	0	0
2550136832	0	0
2617245696	0	0
2684354560	0	0
2751463424	0	0
2818572288	0	0
2885681152	0	0
2952790016	0	0
3019898880	0	0
3087007744	0	0
3154116608	0	0
3221225472	0	0
3288334336	0	0
3355443200	0	0
3422552064	0	0
3489660928	0	0
3556769792	0	0
3623878656	0	0
3690987520	0	0
3758096384	0	0
3825205248	0	0
3892314112	0	0
3959422976	0	0
4026531840	0	0
4093640704	0	0
4160749568	0	0
4227858432	0	0
~~~~~~~~~~Reuse Distance Profiler output end~~~~~~~~~~

DRAM Statistics
 CHANNEL 0
 RQ ROW_BUFFER_HIT:   10930137  ROW_BUFFER_MISS:   29129696
 DBUS AVG_CONGESTED_CYCLE:    3.89572
 WQ ROW_BUFFER_HIT:     125115  ROW_BUFFER_MISS:     110896  FULL:          0


CPU 0 Branch Prediction Accuracy: 91.4409% MPKI: 24.4417 Average ROB Occupancy at Mispredict: 22.7773
Branch type MPKI
BRANCH_DIRECT_JUMP: 7.33333e-06
BRANCH_INDIRECT: 0.00624533
BRANCH_CONDITIONAL: 24.3401
BRANCH_DIRECT_CALL: 6e-06
BRANCH_INDIRECT_CALL: 0.0223993
BRANCH_RETURN: 0.0729087

