
*** ChampSim Multicore Out-of-Order Simulator ***

Warmup Instructions: 500000000
Simulation Instructions: 1500000000
Number of CPUs: 1
Off-chip DRAM Size: 4 GiB Channels: 1 Width: 64-bit Data Rate: 3200 MT/s

VirtualMemory physical capacity: 8588881920 num_ppages: 2096895
VirtualMemory page size: 4096 log2_page_size: 12

CPU 0 runs traces/483.xalancbmk-736B.champsimtrace.xz
CPU 0 Bimodal branch predictor
Basic BTB sets: 1024 ways: 8 indirect buffer size: 4096 RAS size: 64
Initializing LRU.
Initializing LRU.
Initializing LRU.
Initializing LRU.
Initializing rdLRU.
Initializing LRU.
Initializing LRU.
Heartbeat CPU 0 instructions: 10000002 cycles: 2625394 heartbeat IPC: 3.80895 cumulative IPC: 3.80895 (Simulation time: 0 hr 0 min 35 sec) 
Heartbeat CPU 0 instructions: 20000002 cycles: 5253998 heartbeat IPC: 3.8043 cumulative IPC: 3.80663 (Simulation time: 0 hr 1 min 10 sec) 
Heartbeat CPU 0 instructions: 30000000 cycles: 7883403 heartbeat IPC: 3.80314 cumulative IPC: 3.80546 (Simulation time: 0 hr 1 min 44 sec) 
Heartbeat CPU 0 instructions: 40000000 cycles: 10441608 heartbeat IPC: 3.90899 cumulative IPC: 3.83083 (Simulation time: 0 hr 2 min 17 sec) 
Heartbeat CPU 0 instructions: 50000000 cycles: 12941608 heartbeat IPC: 4 cumulative IPC: 3.86351 (Simulation time: 0 hr 2 min 48 sec) 
Heartbeat CPU 0 instructions: 60000000 cycles: 15441608 heartbeat IPC: 4 cumulative IPC: 3.88561 (Simulation time: 0 hr 3 min 20 sec) 
Heartbeat CPU 0 instructions: 70000000 cycles: 17941608 heartbeat IPC: 4 cumulative IPC: 3.90155 (Simulation time: 0 hr 3 min 51 sec) 
Heartbeat CPU 0 instructions: 80000000 cycles: 20441608 heartbeat IPC: 4 cumulative IPC: 3.91359 (Simulation time: 0 hr 4 min 22 sec) 
Heartbeat CPU 0 instructions: 90000000 cycles: 22941608 heartbeat IPC: 4 cumulative IPC: 3.923 (Simulation time: 0 hr 4 min 54 sec) 
Heartbeat CPU 0 instructions: 100000000 cycles: 25441608 heartbeat IPC: 4 cumulative IPC: 3.93057 (Simulation time: 0 hr 5 min 25 sec) 
Heartbeat CPU 0 instructions: 110000000 cycles: 27941608 heartbeat IPC: 4 cumulative IPC: 3.93678 (Simulation time: 0 hr 5 min 56 sec) 
Heartbeat CPU 0 instructions: 120000000 cycles: 30441608 heartbeat IPC: 4 cumulative IPC: 3.94197 (Simulation time: 0 hr 6 min 26 sec) 
Heartbeat CPU 0 instructions: 130000000 cycles: 32941608 heartbeat IPC: 4 cumulative IPC: 3.94638 (Simulation time: 0 hr 6 min 56 sec) 
Heartbeat CPU 0 instructions: 140000000 cycles: 35441608 heartbeat IPC: 4 cumulative IPC: 3.95016 (Simulation time: 0 hr 7 min 26 sec) 
Heartbeat CPU 0 instructions: 150000000 cycles: 37941608 heartbeat IPC: 4 cumulative IPC: 3.95344 (Simulation time: 0 hr 7 min 56 sec) 
Heartbeat CPU 0 instructions: 160000000 cycles: 40441608 heartbeat IPC: 4 cumulative IPC: 3.95632 (Simulation time: 0 hr 8 min 26 sec) 
Heartbeat CPU 0 instructions: 170000000 cycles: 42941608 heartbeat IPC: 4 cumulative IPC: 3.95886 (Simulation time: 0 hr 8 min 57 sec) 
Heartbeat CPU 0 instructions: 180000000 cycles: 45441608 heartbeat IPC: 4 cumulative IPC: 3.96113 (Simulation time: 0 hr 9 min 28 sec) 
Heartbeat CPU 0 instructions: 190000001 cycles: 47946259 heartbeat IPC: 3.99257 cumulative IPC: 3.96277 (Simulation time: 0 hr 10 min 1 sec) 
Heartbeat CPU 0 instructions: 200000000 cycles: 50456624 heartbeat IPC: 3.98348 cumulative IPC: 3.9638 (Simulation time: 0 hr 10 min 35 sec) 
Heartbeat CPU 0 instructions: 210000002 cycles: 52962357 heartbeat IPC: 3.99085 cumulative IPC: 3.96508 (Simulation time: 0 hr 11 min 9 sec) 
Heartbeat CPU 0 instructions: 220000002 cycles: 55493950 heartbeat IPC: 3.95008 cumulative IPC: 3.9644 (Simulation time: 0 hr 11 min 41 sec) 
Heartbeat CPU 0 instructions: 230000003 cycles: 57994960 heartbeat IPC: 3.99838 cumulative IPC: 3.96586 (Simulation time: 0 hr 12 min 15 sec) 
Heartbeat CPU 0 instructions: 240000003 cycles: 60504457 heartbeat IPC: 3.98486 cumulative IPC: 3.96665 (Simulation time: 0 hr 12 min 48 sec) 
Heartbeat CPU 0 instructions: 250000002 cycles: 63036125 heartbeat IPC: 3.94996 cumulative IPC: 3.96598 (Simulation time: 0 hr 13 min 23 sec) 
Heartbeat CPU 0 instructions: 260000003 cycles: 65585254 heartbeat IPC: 3.92291 cumulative IPC: 3.96431 (Simulation time: 0 hr 13 min 55 sec) 
Heartbeat CPU 0 instructions: 270000003 cycles: 68086126 heartbeat IPC: 3.99861 cumulative IPC: 3.96557 (Simulation time: 0 hr 14 min 25 sec) 
Heartbeat CPU 0 instructions: 280000003 cycles: 70595730 heartbeat IPC: 3.98469 cumulative IPC: 3.96625 (Simulation time: 0 hr 15 min 0 sec) 
Heartbeat CPU 0 instructions: 290000002 cycles: 73150983 heartbeat IPC: 3.91351 cumulative IPC: 3.9644 (Simulation time: 0 hr 15 min 35 sec) 
Heartbeat CPU 0 instructions: 300000002 cycles: 75671907 heartbeat IPC: 3.9668 cumulative IPC: 3.96448 (Simulation time: 0 hr 16 min 6 sec) 
Heartbeat CPU 0 instructions: 310000000 cycles: 78173233 heartbeat IPC: 3.99788 cumulative IPC: 3.96555 (Simulation time: 0 hr 16 min 46 sec) 
Heartbeat CPU 0 instructions: 320000000 cycles: 80706901 heartbeat IPC: 3.94685 cumulative IPC: 3.96496 (Simulation time: 0 hr 17 min 38 sec) 
Heartbeat CPU 0 instructions: 330000001 cycles: 83273543 heartbeat IPC: 3.89614 cumulative IPC: 3.96284 (Simulation time: 0 hr 18 min 17 sec) 
Heartbeat CPU 0 instructions: 340000002 cycles: 85859321 heartbeat IPC: 3.86731 cumulative IPC: 3.95997 (Simulation time: 0 hr 18 min 53 sec) 
Heartbeat CPU 0 instructions: 350000002 cycles: 88412937 heartbeat IPC: 3.91602 cumulative IPC: 3.9587 (Simulation time: 0 hr 19 min 26 sec) 
Heartbeat CPU 0 instructions: 360000002 cycles: 90912937 heartbeat IPC: 4 cumulative IPC: 3.95983 (Simulation time: 0 hr 19 min 58 sec) 
Heartbeat CPU 0 instructions: 370000002 cycles: 93412937 heartbeat IPC: 4 cumulative IPC: 3.96091 (Simulation time: 0 hr 20 min 33 sec) 
Heartbeat CPU 0 instructions: 380000002 cycles: 95916886 heartbeat IPC: 3.99369 cumulative IPC: 3.96176 (Simulation time: 0 hr 21 min 30 sec) 
Heartbeat CPU 0 instructions: 390000003 cycles: 98429063 heartbeat IPC: 3.98061 cumulative IPC: 3.96224 (Simulation time: 0 hr 22 min 30 sec) 
Heartbeat CPU 0 instructions: 400000000 cycles: 100940885 heartbeat IPC: 3.98117 cumulative IPC: 3.96272 (Simulation time: 0 hr 23 min 26 sec) 
Heartbeat CPU 0 instructions: 410000002 cycles: 103497481 heartbeat IPC: 3.91145 cumulative IPC: 3.96145 (Simulation time: 0 hr 24 min 23 sec) 
Heartbeat CPU 0 instructions: 420000001 cycles: 106042092 heartbeat IPC: 3.92987 cumulative IPC: 3.96069 (Simulation time: 0 hr 25 min 15 sec) 
Heartbeat CPU 0 instructions: 430000001 cycles: 108542092 heartbeat IPC: 4 cumulative IPC: 3.9616 (Simulation time: 0 hr 26 min 1 sec) 
Heartbeat CPU 0 instructions: 440000000 cycles: 111049565 heartbeat IPC: 3.98808 cumulative IPC: 3.96219 (Simulation time: 0 hr 26 min 54 sec) 
Heartbeat CPU 0 instructions: 450000003 cycles: 113591457 heartbeat IPC: 3.93408 cumulative IPC: 3.96157 (Simulation time: 0 hr 27 min 29 sec) 
Heartbeat CPU 0 instructions: 460000000 cycles: 116158164 heartbeat IPC: 3.89604 cumulative IPC: 3.96012 (Simulation time: 0 hr 28 min 4 sec) 
Heartbeat CPU 0 instructions: 470000002 cycles: 118739957 heartbeat IPC: 3.87328 cumulative IPC: 3.95823 (Simulation time: 0 hr 28 min 43 sec) 
Heartbeat CPU 0 instructions: 480000003 cycles: 121332760 heartbeat IPC: 3.85683 cumulative IPC: 3.95606 (Simulation time: 0 hr 29 min 42 sec) 
Heartbeat CPU 0 instructions: 490000002 cycles: 123936733 heartbeat IPC: 3.84029 cumulative IPC: 3.95363 (Simulation time: 0 hr 30 min 43 sec) 
Heartbeat CPU 0 instructions: 500000004 cycles: 126546543 heartbeat IPC: 3.8317 cumulative IPC: 3.95112 (Simulation time: 0 hr 31 min 43 sec) 

Warmup complete CPU 0 instructions: 500000004 cycles: 126546543 (Simulation time: 0 hr 31 min 43 sec) 

Heartbeat CPU 0 instructions: 510000000 cycles: 131291015 heartbeat IPC: 2.10772 cumulative IPC: 2.10772 (Simulation time: 0 hr 33 min 13 sec) 
Heartbeat CPU 0 instructions: 520000002 cycles: 135371327 heartbeat IPC: 2.45079 cumulative IPC: 2.26634 (Simulation time: 0 hr 34 min 18 sec) 
Heartbeat CPU 0 instructions: 530000000 cycles: 139745448 heartbeat IPC: 2.28617 cumulative IPC: 2.27292 (Simulation time: 0 hr 35 min 19 sec) 
Heartbeat CPU 0 instructions: 540000001 cycles: 144365186 heartbeat IPC: 2.16463 cumulative IPC: 2.24484 (Simulation time: 0 hr 36 min 34 sec) 
Heartbeat CPU 0 instructions: 550000000 cycles: 149117219 heartbeat IPC: 2.10436 cumulative IPC: 2.21526 (Simulation time: 0 hr 37 min 43 sec) 
Heartbeat CPU 0 instructions: 560000002 cycles: 154604034 heartbeat IPC: 1.82255 cumulative IPC: 2.13847 (Simulation time: 0 hr 38 min 55 sec) 
Heartbeat CPU 0 instructions: 570000002 cycles: 165064466 heartbeat IPC: 0.955983 cumulative IPC: 1.81734 (Simulation time: 0 hr 40 min 18 sec) 
Heartbeat CPU 0 instructions: 580000000 cycles: 173466168 heartbeat IPC: 1.19023 cumulative IPC: 1.70504 (Simulation time: 0 hr 41 min 3 sec) 
Heartbeat CPU 0 instructions: 590000000 cycles: 181537388 heartbeat IPC: 1.23897 cumulative IPC: 1.63664 (Simulation time: 0 hr 42 min 8 sec) 
Heartbeat CPU 0 instructions: 600000003 cycles: 189070101 heartbeat IPC: 1.32754 cumulative IPC: 1.5994 (Simulation time: 0 hr 43 min 16 sec) 
Heartbeat CPU 0 instructions: 610000003 cycles: 195922340 heartbeat IPC: 1.45938 cumulative IPC: 1.58557 (Simulation time: 0 hr 44 min 17 sec) 
Heartbeat CPU 0 instructions: 620000003 cycles: 202137288 heartbeat IPC: 1.60902 cumulative IPC: 1.5875 (Simulation time: 0 hr 45 min 24 sec) 
Heartbeat CPU 0 instructions: 630000001 cycles: 207204502 heartbeat IPC: 1.97347 cumulative IPC: 1.61174 (Simulation time: 0 hr 46 min 41 sec) 
Heartbeat CPU 0 instructions: 640000001 cycles: 211621186 heartbeat IPC: 2.26414 cumulative IPC: 1.64561 (Simulation time: 0 hr 47 min 48 sec) 
Heartbeat CPU 0 instructions: 650000001 cycles: 217290448 heartbeat IPC: 1.7639 cumulative IPC: 1.653 (Simulation time: 0 hr 48 min 58 sec) 
Heartbeat CPU 0 instructions: 660000002 cycles: 226819119 heartbeat IPC: 1.04946 cumulative IPC: 1.59565 (Simulation time: 0 hr 49 min 53 sec) 
Heartbeat CPU 0 instructions: 670000003 cycles: 234095163 heartbeat IPC: 1.37437 cumulative IPC: 1.58068 (Simulation time: 0 hr 50 min 45 sec) 
Heartbeat CPU 0 instructions: 680000000 cycles: 240756756 heartbeat IPC: 1.50114 cumulative IPC: 1.57604 (Simulation time: 0 hr 51 min 57 sec) 
Heartbeat CPU 0 instructions: 690000003 cycles: 246995701 heartbeat IPC: 1.60284 cumulative IPC: 1.57743 (Simulation time: 0 hr 53 min 16 sec) 
Heartbeat CPU 0 instructions: 700000003 cycles: 252958753 heartbeat IPC: 1.67699 cumulative IPC: 1.58213 (Simulation time: 0 hr 54 min 36 sec) 
Heartbeat CPU 0 instructions: 710000000 cycles: 258631882 heartbeat IPC: 1.7627 cumulative IPC: 1.58988 (Simulation time: 0 hr 55 min 50 sec) 
Heartbeat CPU 0 instructions: 720000002 cycles: 263276172 heartbeat IPC: 2.15318 cumulative IPC: 1.60901 (Simulation time: 0 hr 56 min 53 sec) 
Heartbeat CPU 0 instructions: 730000001 cycles: 267332136 heartbeat IPC: 2.4655 cumulative IPC: 1.63369 (Simulation time: 0 hr 58 min 25 sec) 
Heartbeat CPU 0 instructions: 740000002 cycles: 271921494 heartbeat IPC: 2.17895 cumulative IPC: 1.6509 (Simulation time: 0 hr 59 min 33 sec) 
Heartbeat CPU 0 instructions: 750000001 cycles: 276887700 heartbeat IPC: 2.01361 cumulative IPC: 1.66288 (Simulation time: 1 hr 0 min 22 sec) 
Heartbeat CPU 0 instructions: 760000003 cycles: 282771589 heartbeat IPC: 1.69956 cumulative IPC: 1.66427 (Simulation time: 1 hr 1 min 32 sec) 
Heartbeat CPU 0 instructions: 770000000 cycles: 293297678 heartbeat IPC: 0.95002 cumulative IPC: 1.61918 (Simulation time: 1 hr 2 min 36 sec) 
Heartbeat CPU 0 instructions: 780000003 cycles: 300225353 heartbeat IPC: 1.44349 cumulative IPC: 1.61217 (Simulation time: 1 hr 3 min 19 sec) 
Heartbeat CPU 0 instructions: 790000004 cycles: 307808166 heartbeat IPC: 1.31877 cumulative IPC: 1.5999 (Simulation time: 1 hr 4 min 8 sec) 
Heartbeat CPU 0 instructions: 800000000 cycles: 315562812 heartbeat IPC: 1.28955 cumulative IPC: 1.58716 (Simulation time: 1 hr 4 min 49 sec) 
Heartbeat CPU 0 instructions: 810000003 cycles: 322374870 heartbeat IPC: 1.46799 cumulative IPC: 1.58302 (Simulation time: 1 hr 5 min 57 sec) 
Heartbeat CPU 0 instructions: 820000000 cycles: 327372023 heartbeat IPC: 2.00114 cumulative IPC: 1.59342 (Simulation time: 1 hr 7 min 2 sec) 
Heartbeat CPU 0 instructions: 830000000 cycles: 334811012 heartbeat IPC: 1.34427 cumulative IPC: 1.58452 (Simulation time: 1 hr 8 min 2 sec) 
Heartbeat CPU 0 instructions: 840000002 cycles: 343741324 heartbeat IPC: 1.11978 cumulative IPC: 1.56542 (Simulation time: 1 hr 8 min 54 sec) 
Heartbeat CPU 0 instructions: 850000001 cycles: 351093727 heartbeat IPC: 1.3601 cumulative IPC: 1.55869 (Simulation time: 1 hr 9 min 44 sec) 
Heartbeat CPU 0 instructions: 860000000 cycles: 357045667 heartbeat IPC: 1.68012 cumulative IPC: 1.56183 (Simulation time: 1 hr 10 min 32 sec) 
Heartbeat CPU 0 instructions: 870000000 cycles: 362431456 heartbeat IPC: 1.85674 cumulative IPC: 1.56856 (Simulation time: 1 hr 11 min 32 sec) 
Heartbeat CPU 0 instructions: 880000000 cycles: 372730239 heartbeat IPC: 0.970989 cumulative IPC: 1.54356 (Simulation time: 1 hr 12 min 26 sec) 
Heartbeat CPU 0 instructions: 890000000 cycles: 379233186 heartbeat IPC: 1.53776 cumulative IPC: 1.54341 (Simulation time: 1 hr 13 min 10 sec) 
Heartbeat CPU 0 instructions: 900000002 cycles: 387441957 heartbeat IPC: 1.21821 cumulative IPC: 1.53318 (Simulation time: 1 hr 14 min 25 sec) 
Heartbeat CPU 0 instructions: 910000002 cycles: 395455340 heartbeat IPC: 1.24791 cumulative IPC: 1.52468 (Simulation time: 1 hr 15 min 38 sec) 
Heartbeat CPU 0 instructions: 920000002 cycles: 402396811 heartbeat IPC: 1.44062 cumulative IPC: 1.52257 (Simulation time: 1 hr 16 min 51 sec) 
Heartbeat CPU 0 instructions: 930000001 cycles: 408833443 heartbeat IPC: 1.55361 cumulative IPC: 1.52327 (Simulation time: 1 hr 17 min 40 sec) 
Heartbeat CPU 0 instructions: 940000001 cycles: 414952179 heartbeat IPC: 1.63432 cumulative IPC: 1.52563 (Simulation time: 1 hr 18 min 24 sec) 
Heartbeat CPU 0 instructions: 950000000 cycles: 420743455 heartbeat IPC: 1.72673 cumulative IPC: 1.52959 (Simulation time: 1 hr 19 min 33 sec) 
Heartbeat CPU 0 instructions: 960000002 cycles: 426341007 heartbeat IPC: 1.7865 cumulative IPC: 1.53438 (Simulation time: 1 hr 20 min 23 sec) 
Heartbeat CPU 0 instructions: 970000003 cycles: 431846747 heartbeat IPC: 1.81629 cumulative IPC: 1.53947 (Simulation time: 1 hr 21 min 7 sec) 
Heartbeat CPU 0 instructions: 980000003 cycles: 437325877 heartbeat IPC: 1.82511 cumulative IPC: 1.5445 (Simulation time: 1 hr 21 min 51 sec) 
Heartbeat CPU 0 instructions: 990000001 cycles: 442871010 heartbeat IPC: 1.80338 cumulative IPC: 1.54904 (Simulation time: 1 hr 22 min 36 sec) 
Heartbeat CPU 0 instructions: 1000000002 cycles: 448393910 heartbeat IPC: 1.81064 cumulative IPC: 1.55353 (Simulation time: 1 hr 23 min 22 sec) 
Heartbeat CPU 0 instructions: 1010000004 cycles: 453781373 heartbeat IPC: 1.85616 cumulative IPC: 1.55851 (Simulation time: 1 hr 24 min 8 sec) 
Heartbeat CPU 0 instructions: 1020000002 cycles: 459174599 heartbeat IPC: 1.85418 cumulative IPC: 1.56331 (Simulation time: 1 hr 24 min 55 sec) 
Heartbeat CPU 0 instructions: 1030000000 cycles: 463541631 heartbeat IPC: 2.28988 cumulative IPC: 1.57272 (Simulation time: 1 hr 25 min 44 sec) 
Heartbeat CPU 0 instructions: 1040000002 cycles: 467858541 heartbeat IPC: 2.31647 cumulative IPC: 1.58213 (Simulation time: 1 hr 26 min 35 sec) 
Heartbeat CPU 0 instructions: 1050000002 cycles: 472436827 heartbeat IPC: 2.18422 cumulative IPC: 1.5901 (Simulation time: 1 hr 27 min 24 sec) 
Heartbeat CPU 0 instructions: 1060000001 cycles: 476996627 heartbeat IPC: 2.19308 cumulative IPC: 1.59795 (Simulation time: 1 hr 28 min 13 sec) 
Heartbeat CPU 0 instructions: 1070000002 cycles: 481460384 heartbeat IPC: 2.24027 cumulative IPC: 1.60602 (Simulation time: 1 hr 29 min 3 sec) 
Heartbeat CPU 0 instructions: 1080000001 cycles: 485860644 heartbeat IPC: 2.27259 cumulative IPC: 1.61419 (Simulation time: 1 hr 29 min 54 sec) 
Heartbeat CPU 0 instructions: 1090000003 cycles: 490290192 heartbeat IPC: 2.25757 cumulative IPC: 1.62202 (Simulation time: 1 hr 30 min 45 sec) 
Heartbeat CPU 0 instructions: 1100000001 cycles: 494769744 heartbeat IPC: 2.23237 cumulative IPC: 1.62945 (Simulation time: 1 hr 32 min 9 sec) 
Heartbeat CPU 0 instructions: 1110000002 cycles: 499498311 heartbeat IPC: 2.11481 cumulative IPC: 1.6356 (Simulation time: 1 hr 33 min 11 sec) 
Heartbeat CPU 0 instructions: 1120000003 cycles: 504736850 heartbeat IPC: 1.90893 cumulative IPC: 1.63939 (Simulation time: 1 hr 34 min 13 sec) 
Heartbeat CPU 0 instructions: 1130000000 cycles: 511531225 heartbeat IPC: 1.47181 cumulative IPC: 1.63643 (Simulation time: 1 hr 35 min 17 sec) 
Heartbeat CPU 0 instructions: 1140000001 cycles: 522059203 heartbeat IPC: 0.94985 cumulative IPC: 1.61815 (Simulation time: 1 hr 36 min 10 sec) 
Heartbeat CPU 0 instructions: 1150000002 cycles: 529221086 heartbeat IPC: 1.39628 cumulative IPC: 1.61421 (Simulation time: 1 hr 36 min 57 sec) 
Heartbeat CPU 0 instructions: 1160000001 cycles: 534754487 heartbeat IPC: 1.80721 cumulative IPC: 1.61682 (Simulation time: 1 hr 38 min 5 sec) 
Heartbeat CPU 0 instructions: 1170000002 cycles: 541103641 heartbeat IPC: 1.57501 cumulative IPC: 1.61618 (Simulation time: 1 hr 39 min 37 sec) 
Heartbeat CPU 0 instructions: 1180000001 cycles: 550168763 heartbeat IPC: 1.10313 cumulative IPC: 1.6052 (Simulation time: 1 hr 40 min 26 sec) 
Heartbeat CPU 0 instructions: 1190000001 cycles: 557272027 heartbeat IPC: 1.4078 cumulative IPC: 1.60195 (Simulation time: 1 hr 41 min 12 sec) 
Heartbeat CPU 0 instructions: 1200000001 cycles: 562715401 heartbeat IPC: 1.8371 cumulative IPC: 1.60488 (Simulation time: 1 hr 42 min 1 sec) 
Heartbeat CPU 0 instructions: 1210000000 cycles: 569918545 heartbeat IPC: 1.38828 cumulative IPC: 1.60136 (Simulation time: 1 hr 43 min 14 sec) 
Heartbeat CPU 0 instructions: 1220000002 cycles: 578476667 heartbeat IPC: 1.16848 cumulative IPC: 1.59317 (Simulation time: 1 hr 44 min 9 sec) 
Heartbeat CPU 0 instructions: 1230000004 cycles: 587891792 heartbeat IPC: 1.06212 cumulative IPC: 1.58233 (Simulation time: 1 hr 45 min 3 sec) 
Heartbeat CPU 0 instructions: 1240000002 cycles: 595006036 heartbeat IPC: 1.40563 cumulative IPC: 1.57965 (Simulation time: 1 hr 46 min 0 sec) 
Heartbeat CPU 0 instructions: 1250000000 cycles: 603765260 heartbeat IPC: 1.14165 cumulative IPC: 1.57161 (Simulation time: 1 hr 46 min 57 sec) 
Heartbeat CPU 0 instructions: 1260000002 cycles: 611314999 heartbeat IPC: 1.32455 cumulative IPC: 1.56776 (Simulation time: 1 hr 47 min 44 sec) 
Heartbeat CPU 0 instructions: 1270000002 cycles: 617527508 heartbeat IPC: 1.60966 cumulative IPC: 1.56829 (Simulation time: 1 hr 48 min 54 sec) 
Heartbeat CPU 0 instructions: 1280000000 cycles: 622905495 heartbeat IPC: 1.85943 cumulative IPC: 1.57144 (Simulation time: 1 hr 49 min 47 sec) 
Heartbeat CPU 0 instructions: 1290000000 cycles: 632908603 heartbeat IPC: 0.999689 cumulative IPC: 1.56015 (Simulation time: 1 hr 50 min 59 sec) 
Heartbeat CPU 0 instructions: 1300000002 cycles: 640351334 heartbeat IPC: 1.34359 cumulative IPC: 1.55701 (Simulation time: 1 hr 52 min 3 sec) 
Heartbeat CPU 0 instructions: 1310000000 cycles: 645686446 heartbeat IPC: 1.87437 cumulative IPC: 1.56027 (Simulation time: 1 hr 53 min 17 sec) 
Heartbeat CPU 0 instructions: 1320000000 cycles: 654440348 heartbeat IPC: 1.14235 cumulative IPC: 1.55334 (Simulation time: 1 hr 54 min 30 sec) 
Heartbeat CPU 0 instructions: 1330000001 cycles: 661421490 heartbeat IPC: 1.43243 cumulative IPC: 1.55176 (Simulation time: 1 hr 55 min 28 sec) 
Heartbeat CPU 0 instructions: 1340000004 cycles: 667913643 heartbeat IPC: 1.54032 cumulative IPC: 1.55163 (Simulation time: 1 hr 56 min 15 sec) 
Heartbeat CPU 0 instructions: 1350000000 cycles: 673919370 heartbeat IPC: 1.66508 cumulative IPC: 1.55287 (Simulation time: 1 hr 56 min 59 sec) 
Heartbeat CPU 0 instructions: 1360000001 cycles: 679774431 heartbeat IPC: 1.70792 cumulative IPC: 1.55451 (Simulation time: 1 hr 57 min 48 sec) 
Heartbeat CPU 0 instructions: 1370000001 cycles: 685585235 heartbeat IPC: 1.72093 cumulative IPC: 1.55624 (Simulation time: 1 hr 58 min 49 sec) 
Heartbeat CPU 0 instructions: 1380000001 cycles: 691083837 heartbeat IPC: 1.81864 cumulative IPC: 1.5588 (Simulation time: 1 hr 59 min 54 sec) 
Heartbeat CPU 0 instructions: 1390000002 cycles: 696552729 heartbeat IPC: 1.82852 cumulative IPC: 1.56139 (Simulation time: 2 hr 0 min 38 sec) 
Heartbeat CPU 0 instructions: 1400000001 cycles: 700619323 heartbeat IPC: 2.45906 cumulative IPC: 1.56775 (Simulation time: 2 hr 1 min 48 sec) 
Heartbeat CPU 0 instructions: 1410000001 cycles: 704852466 heartbeat IPC: 2.36231 cumulative IPC: 1.57356 (Simulation time: 2 hr 3 min 19 sec) 
Heartbeat CPU 0 instructions: 1420000003 cycles: 709279205 heartbeat IPC: 2.259 cumulative IPC: 1.57877 (Simulation time: 2 hr 4 min 33 sec) 
Heartbeat CPU 0 instructions: 1430000003 cycles: 713874904 heartbeat IPC: 2.17595 cumulative IPC: 1.58344 (Simulation time: 2 hr 5 min 22 sec) 
Heartbeat CPU 0 instructions: 1440000002 cycles: 718584078 heartbeat IPC: 2.12351 cumulative IPC: 1.58774 (Simulation time: 2 hr 6 min 10 sec) 
Heartbeat CPU 0 instructions: 1450000001 cycles: 724065388 heartbeat IPC: 1.82438 cumulative IPC: 1.58991 (Simulation time: 2 hr 6 min 59 sec) 
Heartbeat CPU 0 instructions: 1460000000 cycles: 733839041 heartbeat IPC: 1.02316 cumulative IPC: 1.58079 (Simulation time: 2 hr 7 min 54 sec) 
Heartbeat CPU 0 instructions: 1470000003 cycles: 741483395 heartbeat IPC: 1.30816 cumulative IPC: 1.5774 (Simulation time: 2 hr 8 min 35 sec) 
Heartbeat CPU 0 instructions: 1480000002 cycles: 748400903 heartbeat IPC: 1.44561 cumulative IPC: 1.57593 (Simulation time: 2 hr 9 min 17 sec) 
Heartbeat CPU 0 instructions: 1490000000 cycles: 754663826 heartbeat IPC: 1.5967 cumulative IPC: 1.57614 (Simulation time: 2 hr 10 min 1 sec) 
Heartbeat CPU 0 instructions: 1500000003 cycles: 759431951 heartbeat IPC: 2.09726 cumulative IPC: 1.58006 (Simulation time: 2 hr 10 min 47 sec) 
Heartbeat CPU 0 instructions: 1510000000 cycles: 764279893 heartbeat IPC: 2.06273 cumulative IPC: 1.58373 (Simulation time: 2 hr 11 min 35 sec) 
Heartbeat CPU 0 instructions: 1520000000 cycles: 773021173 heartbeat IPC: 1.144 cumulative IPC: 1.57779 (Simulation time: 2 hr 13 min 14 sec) 
Heartbeat CPU 0 instructions: 1530000004 cycles: 781313548 heartbeat IPC: 1.20593 cumulative IPC: 1.57308 (Simulation time: 2 hr 14 min 26 sec) 
Heartbeat CPU 0 instructions: 1540000001 cycles: 788998659 heartbeat IPC: 1.30122 cumulative IPC: 1.56992 (Simulation time: 2 hr 15 min 34 sec) 
Heartbeat CPU 0 instructions: 1550000002 cycles: 794701143 heartbeat IPC: 1.75362 cumulative IPC: 1.57149 (Simulation time: 2 hr 16 min 19 sec) 
Heartbeat CPU 0 instructions: 1560000003 cycles: 803644665 heartbeat IPC: 1.11813 cumulative IPC: 1.5655 (Simulation time: 2 hr 17 min 7 sec) 
Heartbeat CPU 0 instructions: 1570000001 cycles: 811362482 heartbeat IPC: 1.2957 cumulative IPC: 1.56246 (Simulation time: 2 hr 18 min 13 sec) 
Heartbeat CPU 0 instructions: 1580000001 cycles: 818155941 heartbeat IPC: 1.472 cumulative IPC: 1.56158 (Simulation time: 2 hr 19 min 6 sec) 
Heartbeat CPU 0 instructions: 1590000000 cycles: 822919440 heartbeat IPC: 2.0993 cumulative IPC: 1.56525 (Simulation time: 2 hr 20 min 0 sec) 
Heartbeat CPU 0 instructions: 1600000000 cycles: 831667728 heartbeat IPC: 1.14308 cumulative IPC: 1.56002 (Simulation time: 2 hr 20 min 59 sec) 
Heartbeat CPU 0 instructions: 1610000003 cycles: 839310986 heartbeat IPC: 1.30834 cumulative IPC: 1.55732 (Simulation time: 2 hr 21 min 42 sec) 
Heartbeat CPU 0 instructions: 1620000000 cycles: 847048802 heartbeat IPC: 1.29235 cumulative IPC: 1.55447 (Simulation time: 2 hr 22 min 25 sec) 
Heartbeat CPU 0 instructions: 1630000001 cycles: 854623872 heartbeat IPC: 1.32012 cumulative IPC: 1.55203 (Simulation time: 2 hr 23 min 10 sec) 
Heartbeat CPU 0 instructions: 1640000003 cycles: 861953479 heartbeat IPC: 1.36433 cumulative IPC: 1.55016 (Simulation time: 2 hr 24 min 2 sec) 
Heartbeat CPU 0 instructions: 1650000003 cycles: 868600005 heartbeat IPC: 1.50455 cumulative IPC: 1.54975 (Simulation time: 2 hr 24 min 44 sec) 
Heartbeat CPU 0 instructions: 1660000001 cycles: 874716794 heartbeat IPC: 1.63484 cumulative IPC: 1.55045 (Simulation time: 2 hr 25 min 27 sec) 
Heartbeat CPU 0 instructions: 1670000001 cycles: 879138214 heartbeat IPC: 2.26172 cumulative IPC: 1.55463 (Simulation time: 2 hr 26 min 15 sec) 
Heartbeat CPU 0 instructions: 1680000001 cycles: 884005785 heartbeat IPC: 2.05441 cumulative IPC: 1.55784 (Simulation time: 2 hr 27 min 3 sec) 
Heartbeat CPU 0 instructions: 1690000003 cycles: 892537012 heartbeat IPC: 1.17216 cumulative IPC: 1.55354 (Simulation time: 2 hr 27 min 56 sec) 
Heartbeat CPU 0 instructions: 1700000001 cycles: 900663608 heartbeat IPC: 1.23053 cumulative IPC: 1.55015 (Simulation time: 2 hr 28 min 37 sec) 
Heartbeat CPU 0 instructions: 1710000003 cycles: 908680203 heartbeat IPC: 1.24741 cumulative IPC: 1.54705 (Simulation time: 2 hr 29 min 22 sec) 
Heartbeat CPU 0 instructions: 1720000001 cycles: 916579891 heartbeat IPC: 1.26587 cumulative IPC: 1.54424 (Simulation time: 2 hr 30 min 1 sec) 
Heartbeat CPU 0 instructions: 1730000000 cycles: 923602988 heartbeat IPC: 1.42387 cumulative IPC: 1.54318 (Simulation time: 2 hr 30 min 44 sec) 
Heartbeat CPU 0 instructions: 1740000000 cycles: 929881176 heartbeat IPC: 1.59282 cumulative IPC: 1.54357 (Simulation time: 2 hr 31 min 27 sec) 
Heartbeat CPU 0 instructions: 1750000000 cycles: 934263840 heartbeat IPC: 2.28172 cumulative IPC: 1.54757 (Simulation time: 2 hr 32 min 14 sec) 
Heartbeat CPU 0 instructions: 1760000000 cycles: 941629004 heartbeat IPC: 1.35774 cumulative IPC: 1.54586 (Simulation time: 2 hr 33 min 5 sec) 
Heartbeat CPU 0 instructions: 1770000000 cycles: 950777366 heartbeat IPC: 1.09309 cumulative IPC: 1.54083 (Simulation time: 2 hr 33 min 49 sec) 
Heartbeat CPU 0 instructions: 1780000000 cycles: 958810525 heartbeat IPC: 1.24484 cumulative IPC: 1.53797 (Simulation time: 2 hr 35 min 2 sec) 
Heartbeat CPU 0 instructions: 1790000003 cycles: 966968347 heartbeat IPC: 1.22582 cumulative IPC: 1.53494 (Simulation time: 2 hr 35 min 44 sec) 
Heartbeat CPU 0 instructions: 1800000001 cycles: 974185765 heartbeat IPC: 1.38554 cumulative IPC: 1.53367 (Simulation time: 2 hr 36 min 28 sec) 
Heartbeat CPU 0 instructions: 1810000000 cycles: 981559807 heartbeat IPC: 1.35611 cumulative IPC: 1.53214 (Simulation time: 2 hr 37 min 8 sec) 
Heartbeat CPU 0 instructions: 1820000004 cycles: 988310246 heartbeat IPC: 1.48139 cumulative IPC: 1.53174 (Simulation time: 2 hr 38 min 2 sec) 
Heartbeat CPU 0 instructions: 1830000000 cycles: 994640696 heartbeat IPC: 1.57967 cumulative IPC: 1.53209 (Simulation time: 2 hr 39 min 8 sec) 
Heartbeat CPU 0 instructions: 1840000002 cycles: 1000520101 heartbeat IPC: 1.70085 cumulative IPC: 1.53323 (Simulation time: 2 hr 40 min 6 sec) 
Heartbeat CPU 0 instructions: 1850000002 cycles: 1005286616 heartbeat IPC: 2.09797 cumulative IPC: 1.53629 (Simulation time: 2 hr 40 min 53 sec) 
Heartbeat CPU 0 instructions: 1860000000 cycles: 1009486699 heartbeat IPC: 2.3809 cumulative IPC: 1.54031 (Simulation time: 2 hr 41 min 55 sec) 
Heartbeat CPU 0 instructions: 1870000001 cycles: 1014489056 heartbeat IPC: 1.99906 cumulative IPC: 1.54289 (Simulation time: 2 hr 42 min 58 sec) 
Heartbeat CPU 0 instructions: 1880000001 cycles: 1020376442 heartbeat IPC: 1.69855 cumulative IPC: 1.54392 (Simulation time: 2 hr 44 min 15 sec) 
Heartbeat CPU 0 instructions: 1890000000 cycles: 1030528746 heartbeat IPC: 0.984998 cumulative IPC: 1.53764 (Simulation time: 2 hr 45 min 17 sec) 
Heartbeat CPU 0 instructions: 1900000002 cycles: 1037842505 heartbeat IPC: 1.36729 cumulative IPC: 1.53627 (Simulation time: 2 hr 45 min 59 sec) 
Heartbeat CPU 0 instructions: 1910000000 cycles: 1043570524 heartbeat IPC: 1.7458 cumulative IPC: 1.53758 (Simulation time: 2 hr 46 min 47 sec) 
Heartbeat CPU 0 instructions: 1920000001 cycles: 1050595857 heartbeat IPC: 1.42342 cumulative IPC: 1.53671 (Simulation time: 2 hr 47 min 45 sec) 
Heartbeat CPU 0 instructions: 1930000001 cycles: 1059573881 heartbeat IPC: 1.11383 cumulative IPC: 1.53265 (Simulation time: 2 hr 48 min 27 sec) 
Heartbeat CPU 0 instructions: 1940000002 cycles: 1067165875 heartbeat IPC: 1.31718 cumulative IPC: 1.53091 (Simulation time: 2 hr 49 min 9 sec) 
Heartbeat CPU 0 instructions: 1950000000 cycles: 1074988549 heartbeat IPC: 1.27833 cumulative IPC: 1.52882 (Simulation time: 2 hr 49 min 50 sec) 
Heartbeat CPU 0 instructions: 1960000002 cycles: 1082304452 heartbeat IPC: 1.36689 cumulative IPC: 1.52758 (Simulation time: 2 hr 50 min 31 sec) 
Heartbeat CPU 0 instructions: 1970000001 cycles: 1089675207 heartbeat IPC: 1.35671 cumulative IPC: 1.52628 (Simulation time: 2 hr 51 min 29 sec) 
Heartbeat CPU 0 instructions: 1980000002 cycles: 1097704283 heartbeat IPC: 1.24547 cumulative IPC: 1.52395 (Simulation time: 2 hr 52 min 11 sec) 
Heartbeat CPU 0 instructions: 1990000001 cycles: 1105570440 heartbeat IPC: 1.27127 cumulative IPC: 1.52192 (Simulation time: 2 hr 52 min 51 sec) 
*** Reached end of trace: traces/483.xalancbmk-736B.champsimtrace.xz
Heartbeat CPU 0 instructions: 2000000001 cycles: 1112466864 heartbeat IPC: 1.45003 cumulative IPC: 1.52142 (Simulation time: 2 hr 53 min 33 sec) 
Finished CPU 0 instructions: 1500000000 cycles: 985920322 cumulative IPC: 1.52142 (Simulation time: 2 hr 53 min 33 sec) 

ChampSim completed all CPUs

Region of Interest Statistics

CPU 0 cumulative IPC: 1.52142 instructions: 1500000000 cycles: 985920322
cpu0_DTLB TOTAL     ACCESS:  242620421  HIT:  231355004  MISS:   11265417
cpu0_DTLB LOAD      ACCESS:  181202744  HIT:  170707660  MISS:   10495084
cpu0_DTLB RFO       ACCESS:   61417677  HIT:   60647344  MISS:     770333
cpu0_DTLB PREFETCH  ACCESS:          0  HIT:          0  MISS:          0
cpu0_DTLB WRITEBACK ACCESS:          0  HIT:          0  MISS:          0
cpu0_DTLB TRANSLATION ACCESS:          0  HIT:          0  MISS:          0
cpu0_DTLB PREFETCH  REQUESTED:          0  ISSUED:          0  USEFUL:          0  USELESS:          0
cpu0_DTLB AVERAGE MISS LATENCY: 10.2072 cycles
cpu0_ITLB TOTAL     ACCESS:   83130086  HIT:   82122910  MISS:    1007176
cpu0_ITLB LOAD      ACCESS:   83130086  HIT:   82122910  MISS:    1007176
cpu0_ITLB RFO       ACCESS:          0  HIT:          0  MISS:          0
cpu0_ITLB PREFETCH  ACCESS:          0  HIT:          0  MISS:          0
cpu0_ITLB WRITEBACK ACCESS:          0  HIT:          0  MISS:          0
cpu0_ITLB TRANSLATION ACCESS:          0  HIT:          0  MISS:          0
cpu0_ITLB PREFETCH  REQUESTED:          0  ISSUED:          0  USEFUL:          0  USELESS:          0
cpu0_ITLB AVERAGE MISS LATENCY: 9.07638 cycles
cpu0_L1I TOTAL     ACCESS:   59189411  HIT:   58556799  MISS:     632612
cpu0_L1I LOAD      ACCESS:   59189411  HIT:   58556799  MISS:     632612
cpu0_L1I RFO       ACCESS:          0  HIT:          0  MISS:          0
cpu0_L1I PREFETCH  ACCESS:          0  HIT:          0  MISS:          0
cpu0_L1I WRITEBACK ACCESS:          0  HIT:          0  MISS:          0
cpu0_L1I TRANSLATION ACCESS:          0  HIT:          0  MISS:          0
cpu0_L1I PREFETCH  REQUESTED:          0  ISSUED:          0  USEFUL:          0  USELESS:          0
cpu0_L1I AVERAGE MISS LATENCY: 24.7426 cycles
cpu0_STLB TOTAL     ACCESS:   12272593  HIT:   11438378  MISS:     834215
cpu0_STLB LOAD      ACCESS:   11502260  HIT:   11005727  MISS:     496533
cpu0_STLB RFO       ACCESS:     770333  HIT:     432651  MISS:     337682
cpu0_STLB PREFETCH  ACCESS:          0  HIT:          0  MISS:          0
cpu0_STLB WRITEBACK ACCESS:          0  HIT:          0  MISS:          0
cpu0_STLB TRANSLATION ACCESS:          0  HIT:          0  MISS:          0
cpu0_STLB PREFETCH  REQUESTED:          0  ISSUED:          0  USEFUL:          0  USELESS:          0
cpu0_STLB AVERAGE MISS LATENCY: 16.2906 cycles
cpu0_L1D TOTAL     ACCESS:  242315997  HIT:  222566851  MISS:   19749146
cpu0_L1D LOAD      ACCESS:  150820478  HIT:  133737406  MISS:   17083072
cpu0_L1D RFO       ACCESS:   90748935  HIT:   88221363  MISS:    2527572
cpu0_L1D PREFETCH  ACCESS:          0  HIT:          0  MISS:          0
cpu0_L1D WRITEBACK ACCESS:          0  HIT:          0  MISS:          0
cpu0_L1D TRANSLATION ACCESS:     746584  HIT:     608082  MISS:     138502
cpu0_L1D PREFETCH  REQUESTED:          0  ISSUED:          0  USEFUL:          0  USELESS:          0
cpu0_L1D AVERAGE MISS LATENCY: 40.929 cycles
cpu0_L2C TOTAL     ACCESS:   24117863  HIT:   20452767  MISS:    3665096
cpu0_L2C LOAD      ACCESS:   17715027  HIT:   16349594  MISS:    1365433
cpu0_L2C RFO       ACCESS:    2527452  HIT:     233646  MISS:    2293806
cpu0_L2C PREFETCH  ACCESS:          0  HIT:          0  MISS:          0
cpu0_L2C WRITEBACK ACCESS:    3736882  HIT:    3732664  MISS:       4218
cpu0_L2C TRANSLATION ACCESS:     138502  HIT:     136863  MISS:       1639
cpu0_L2C PREFETCH  REQUESTED:          0  ISSUED:          0  USEFUL:          0  USELESS:          0
cpu0_L2C AVERAGE MISS LATENCY: 162.876 cycles
LLC TOTAL     ACCESS:    6728831  HIT:    3856668  MISS:    2872163
LLC LOAD      ACCESS:    1365429  HIT:     603688  MISS:     761741
LLC RFO       ACCESS:    2293806  HIT:     193708  MISS:    2100098
LLC PREFETCH  ACCESS:          0  HIT:          0  MISS:          0
LLC WRITEBACK ACCESS:    3067957  HIT:    3058333  MISS:       9624
LLC TRANSLATION ACCESS:       1639  HIT:        939  MISS:        700
LLC PREFETCH  REQUESTED:          0  ISSUED:          0  USEFUL:          0  USELESS:          0
LLC AVERAGE MISS LATENCY: 181.075 cycles
~~~~~~~~~~Reuse Distance Profiler output~~~~~~~~~~
0	102145696	54725024
1	32229984	17458016
2	14443728	6780944
3	12729376	5995536
4	11084592	5825520
5	7974288	4738912
6	5955040	3517536
7	4671456	2561664
8	4205504	2230352
9	3753472	2067792
10	2998480	1565408
11	2573328	1528832
12	2327584	1500416
13	2193504	1452032
14	1774528	1055680
15	1753936	1118608
16	1819872	1232320
17	1434176	944992
18	1419584	827712
19	1443296	923488
20	1100320	708272
21	1515824	1045344
22	1574336	1125696
23	1122960	749936
24	764272	439680
25	656608	434848
26	651200	401776
27	730128	399568
28	746496	404624
29	600448	298016
30	606544	346832
31	420336	241776
32	449072	278464
33	624272	366560
34	430560	244608
35	397088	229920
36	536192	364912
37	596528	441008
38	461248	272576
39	425984	234000
40	357136	218000
41	379696	223728
42	399280	258432
43	385584	233680
44	351360	225072
45	349344	218352
46	307392	174704
47	311312	156736
48	322640	187424
49	240144	118688
50	255312	158640
51	271952	205168
52	294624	193056
53	292384	200304
54	291856	218912
55	300320	205616
56	254448	176832
57	305808	199808
58	237936	161728
59	223840	141040
60	225328	150832
61	185408	127680
62	239904	141504
63	256144	149520
64	517536	319248
66	480144	275328
68	540384	317712
70	428320	220640
72	404096	210688
74	382160	245360
76	474848	280064
78	474656	278624
80	477024	324752
82	303168	176512
84	306896	167744
86	354736	218960
88	332064	234192
90	293680	203344
92	336288	213120
94	409104	300736
96	384320	285248
98	284352	153296
100	233152	126736
102	195056	109344
104	174160	96592
106	212880	135728
108	202880	154592
110	209952	159632
112	209856	163328
114	234416	169248
116	187824	127184
118	206608	146976
120	165392	123024
122	129920	84176
124	127600	87184
126	138608	90432
128	258928	186736
132	233952	187840
136	210288	175360
140	252912	217728
144	260832	210928
148	245664	173504
152	335680	245696
156	299040	208928
160	214304	151712
164	258432	224912
168	263248	202192
172	153584	110416
176	216848	140912
180	176240	135584
184	183632	141536
188	198528	154480
192	136624	112080
196	210080	148496
200	229168	182768
204	206560	158304
208	182448	167440
212	247488	231552
216	189680	166880
220	154800	102800
224	139968	96880
228	172848	131312
232	190192	151056
236	282464	246848
240	290352	278192
244	146368	135680
248	86144	73248
252	134144	99248
256	246048	206240
264	357312	307424
272	288384	266512
280	352592	321648
288	361872	306688
296	312896	233920
304	314512	257984
312	238816	219152
320	269936	245840
328	260256	232000
336	288752	262208
344	301008	265024
352	314752	283456
360	311440	280496
368	341744	303264
376	359472	301648
384	433792	386192
392	435584	380576
400	466640	404400
408	341296	288704
416	306080	211696
424	277344	211360
432	282400	240704
440	254080	224560
448	229664	208304
456	247264	214736
464	289296	260560
472	268304	237888
480	275296	239392
488	359904	324240
496	439536	416656
504	347616	328960
512	703696	642960
528	551232	518224
544	384800	329616
560	464592	373120
576	473168	388224
592	529664	469456
608	472160	420816
624	519328	487456
640	473312	437216
656	508736	463888
672	514992	461088
688	509536	475600
704	551856	529344
720	702688	679744
736	697168	666496
752	586080	550992
768	660256	626480
784	518368	490768
800	610880	581632
816	458352	424816
832	431200	400112
848	400848	373760
864	425376	398560
880	414784	390736
896	430800	407392
912	413616	391120
928	387184	365808
944	409312	390496
960	407312	389952
976	410384	393568
992	364256	347216
1008	371296	351456
1024	707552	664624
1056	700784	666224
1088	652464	622304
1120	597536	569728
1152	581632	557776
1184	533632	511920
1216	528976	505936
1248	512608	492464
1280	497856	474416
1312	557136	533312
1344	552128	523312
1376	478720	454256
1408	439088	418432
1440	467888	446816
1472	497104	468400
1504	493840	469952
1536	433888	410672
1568	450224	425312
1600	465120	436816
1632	558224	515424
1664	493632	477664
1696	388112	373120
1728	355632	340688
1760	404528	385072
1792	398224	368400
1824	369680	335488
1856	327776	300512
1888	321584	302768
1920	337296	316832
1952	341376	315040
1984	361360	334176
2016	313648	288400
2048	520512	479568
2112	556016	521104
2176	497216	461024
2240	425008	395440
2304	461824	434352
2368	445568	419232
2432	412080	388512
2496	365904	343888
2560	363408	343904
2624	361536	343760
2688	411408	392960
2752	378512	361216
2816	310848	290352
2880	327232	307728
2944	337920	318480
3008	313392	294640
3072	302848	286160
3136	306320	288560
3200	326928	309824
3264	404384	387936
3328	387536	371120
3392	395616	379792
3456	451056	433984
3520	539824	521152
3584	568240	551568
3648	631856	616496
3712	730448	717264
3776	746544	733632
3840	801152	787904
3904	782208	770416
3968	787792	776992
4032	842368	831488
4096	1510512	1488480
4224	1472080	1452464
4352	1778880	1761088
4480	1609664	1595520
4608	836032	826272
4736	565136	556544
4864	529152	521312
4992	480480	473248
5120	451872	445424
5248	423728	418256
5376	424176	418752
5504	391024	386224
5632	393504	389056
5760	388400	384960
5888	349936	346320
6016	331536	327936
6144	319376	316000
6272	361456	357728
6400	341728	338928
6528	358976	355776
6656	326672	323728
6784	280272	277008
6912	215552	213504
7040	223568	221360
7168	266960	265120
7296	232480	230512
7424	209152	207216
7552	176352	174704
7680	177696	176176
7808	176048	174736
7936	178592	177168
8064	192736	191104
8192	198992	196880
8448	157920	156032
8704	277648	275472
8960	321504	319728
9216	221248	220096
9472	115168	114304
9728	101440	100672
9984	121600	120960
10240	94464	93984
10496	98240	97936
10752	109056	108720
11008	76528	76176
11264	63744	63424
11520	63904	63664
11776	54880	54480
12032	53360	53104
12288	40960	40640
12544	37680	37392
12800	31728	31568
13056	49744	49488
13312	63376	63168
13568	62720	62496
13824	69504	69200
14080	51200	50912
14336	68176	67904
14592	58592	58224
14848	54048	53728
15104	48000	47760
15360	52624	52288
15616	64480	64192
15872	68656	68400
16128	81776	81616
16384	195744	195200
16896	202224	201744
17408	287056	286736
17920	270016	269616
18432	276128	276016
18944	228912	228688
19456	211520	211216
19968	248128	247888
20480	307904	307776
20992	233120	232848
21504	119024	118736
22016	126144	126016
22528	119744	119616
23040	88112	87984
23552	28208	28112
24064	26752	26592
24576	29424	29296
25088	27824	27648
25600	30608	30512
26112	27440	27248
26624	34976	34816
27136	30896	30672
27648	22944	22768
28160	20704	20512
28672	25696	25536
29184	23984	23856
29696	26576	26432
30208	25872	25664
30720	37088	36880
31232	29776	29584
31744	30112	30032
32256	27840	27728
32768	32432	32192
33792	21232	20944
34816	31056	30640
35840	27264	27104
36864	24464	24032
37888	36256	35968
38912	22368	22208
39936	3744	3584
40960	17440	17216
41984	73440	73296
43008	53504	53360
44032	68944	68848
45056	8160	7904
46080	1696	1536
47104	2240	2144
48128	2240	2064
49152	6960	6752
50176	7056	6864
51200	1568	1424
52224	4144	4048
53248	4272	4144
54272	1312	1152
55296	6512	6336
56320	1120	928
57344	1552	1392
58368	1360	1136
59392	1632	1440
60416	1472	1280
61440	3760	3568
62464	1056	896
63488	4048	3824
64512	1072	912
65536	4784	4352
67584	2480	2016
69632	5216	4912
71680	6624	6256
73728	6784	6512
75776	6672	6336
77824	4224	3744
79872	11504	11040
81920	5968	5600
83968	5840	5520
86016	6800	6352
88064	14256	13920
90112	6400	6096
92160	9008	8592
94208	5328	5040
96256	4848	4528
98304	2432	2224
100352	8048	7744
102400	11632	11328
104448	7136	6720
106496	5072	4864
108544	6944	6592
110592	4800	4576
112640	6352	6000
114688	9040	8544
116736	10784	10368
118784	4736	4448
120832	12400	12080
122880	6720	6432
124928	3088	2800
126976	8064	7680
129024	5040	4800
131072	7264	6688
135168	2864	2224
139264	2640	2064
143360	3184	2528
147456	6080	5280
151552	5440	4624
155648	2640	2064
159744	3056	2256
163840	2768	2112
167936	5552	4672
172032	5344	4416
176128	5376	4688
180224	10736	9936
184320	2592	1728
188416	2848	2112
192512	5392	4768
196608	4528	3696
200704	5104	4336
204800	4896	3744
208896	3632	2768
212992	4032	3136
217088	9472	8368
221184	2560	1648
225280	2784	1904
229376	5568	4528
233472	2832	1888
237568	2704	1888
241664	3280	2336
245760	3808	2800
249856	3424	2592
253952	3024	2160
258048	2800	1792
262144	5104	3280
270336	5296	3328
278528	8464	6480
286720	5888	3840
294912	5440	3568
303104	10368	8560
311296	5360	3408
319488	5056	3408
327680	4864	3264
335872	5680	3664
344064	5680	3632
352256	4768	3136
360448	5312	3520
368640	4512	2704
376832	10640	8880
385024	4992	3264
393216	4672	3152
401408	4352	2832
409600	7040	5504
417792	4288	2672
425984	4752	3120
434176	4416	2688
442368	4480	3168
450560	7120	5552
458752	4128	2480
466944	4464	2816
475136	4048	2656
483328	4384	2768
491520	6896	5344
499712	4416	2880
507904	7184	5552
516096	4224	2720
524288	8352	5920
540672	13824	10880
557056	8384	5584
573440	8112	5712
589824	7616	4784
606208	7632	5248
622592	8528	5600
638976	9008	6832
655360	7856	5664
671744	7344	4624
688128	7216	4624
704512	6816	4464
720896	9840	6896
737280	9776	7376
753664	6672	4480
770048	9264	7008
786432	6688	4304
802816	11584	9264
819200	6480	3984
835584	9280	7264
851968	6384	4112
868352	6640	4272
884736	8832	6384
901120	6192	3856
917504	7104	4864
933888	8016	6016
950272	7888	5568
966656	6112	4176
983040	6112	3840
999424	8032	6224
1015808	6320	4272
1032192	6496	4224
1048576	11280	7728
1081344	11232	7200
1114112	11424	7712
1146880	10176	6976
1179648	11376	7664
1212416	11152	7408
1245184	10560	6832
1277952	13232	9680
1310720	10176	6928
1343488	10240	6992
1376256	9952	6592
1409024	9888	6864
1441792	13072	9712
1474560	12736	9056
1507328	10080	6704
1540096	13296	9936
1572864	13824	10896
1605632	9456	6560
1638400	10000	6624
1671168	10912	7712
1703936	9392	6320
1736704	8480	5472
1769472	8304	5072
1802240	9040	5712
1835008	8816	5648
1867776	8784	5424
1900544	10352	7456
1933312	8864	5472
1966080	8528	5440
1998848	8848	5888
2031616	8544	5008
2064384	8688	5536
2097152	21904	15600
2162688	19952	13392
2228224	17424	10752
2293760	17856	11952
2359296	20320	14688
2424832	15056	9536
2490368	14976	10704
2555904	13136	9008
2621440	12336	8592
2686976	14160	10336
2752512	11632	7936
2818048	13328	9680
2883584	19904	15152
2949120	11232	6848
3014656	12448	8912
3080192	9280	5728
3145728	8768	5760
3211264	8912	5936
3276800	8384	5520
3342336	8800	6128
3407872	10880	8368
3473408	9200	6064
3538944	8752	5920
3604480	9584	6480
3670016	8240	4992
3735552	8992	5872
3801088	9152	5360
3866624	8896	5616
3932160	8848	5760
3997696	8784	5792
4063232	8000	5200
4128768	8768	6016
4194304	19104	13504
4325376	17280	11792
4456448	22608	15504
4587520	18656	11088
4718592	19696	10768
4849664	17312	10064
4980736	18896	11536
5111808	17760	11696
5242880	15456	9184
5373952	14160	8400
5505024	15008	8640
5636096	14496	8512
5767168	19216	9328
5898240	15968	8960
6029312	18480	8560
6160384	17888	8112
6291456	16256	10880
6422528	24080	10192
6553600	21888	10368
6684672	26240	12016
6815744	52800	12240
6946816	20608	7344
7077888	19408	10880
7208960	17424	6096
7340032	10992	5200
7471104	11264	4560
7602176	16832	4848
7733248	23248	4832
7864320	25824	5392
7995392	10976	4768
8126464	15696	6560
8257536	18320	4848
8388608	31744	10080
8650752	20720	7696
8912896	32112	8240
9175040	21904	7632
9437184	25280	9472
9699328	19216	6896
9961472	21856	8800
10223616	21808	8224
10485760	22048	4736
10747904	24192	4704
11010048	15296	3856
11272192	17104	4464
11534336	14368	4224
11796480	20288	5440
12058624	16176	5216
12320768	25088	7056
12582912	23072	4496
12845056	21200	4496
13107200	17664	4272
13369344	15200	3936
13631488	27232	4224
13893632	16688	6016
14155776	15520	2976
14417920	24416	3168
14680064	12480	5344
14942208	22576	3120
15204352	21344	2400
15466496	11952	2208
15728640	25968	1920
15990784	17024	2128
16252928	15968	2784
16515072	15232	1952
16777216	25984	4688
17301504	27808	5024
17825792	20608	4656
18350080	40416	6544
18874368	16560	3648
19398656	15840	3232
19922944	11360	3200
20447232	20864	3424
20971520	14176	3520
21495808	24704	5024
22020096	21152	2112
22544384	23552	1792
23068672	13648	1648
23592960	17168	2288
24117248	32640	2000
24641536	14208	2064
25165824	10432	1984
25690112	13840	2368
26214400	10608	4080
26738688	8672	1552
27262976	7600	1136
27787264	6000	992
28311552	6304	752
28835840	9312	736
29360128	51040	1040
29884416	12736	2720
30408704	8768	1328
30932992	19504	944
31457280	14880	1936
31981568	5344	1472
32505856	4976	1264
33030144	5008	1616
33554432	10752	5840
34603008	15088	6080
35651584	50928	6016
36700160	77264	5488
37748736	34496	6976
38797312	23952	5696
39845888	26656	8896
40894464	23376	7424
41943040	14768	7984
42991616	11280	5696
44040192	12416	5232
45088768	12320	3776
46137344	10640	4880
47185920	7728	3792
48234496	6336	3808
49283072	8592	5968
50331648	5824	3312
51380224	6736	4448
52428800	3488	1648
53477376	10432	4496
54525952	1392	240
55574528	2336	976
56623104	3024	1776
57671680	5136	96
58720256	3376	208
59768832	4112	336
60817408	15424	848
61865984	22256	304
62914560	9184	128
63963136	96720	1072
65011712	5280	224
66060288	1024	64
67108864	3424	1760
69206016	7424	240
71303168	42576	432
73400320	5232	352
75497472	3104	336
77594624	2368	288
79691776	2208	640
81788928	19504	1696
83886080	19248	2400
85983232	2752	1200
88080384	4848	2336
90177536	6016	2976
92274688	6352	3328
94371840	3120	1600
96468992	3744	2016
98566144	1808	800
100663296	3424	1648
102760448	992	208
104857600	3424	1392
106954752	560	208
109051904	1552	224
111149056	1344	112
113246208	960	208
115343360	688	160
117440512	1424	144
119537664	704	112
121634816	992	160
123731968	784	144
125829120	1136	288
127926272	1632	176
130023424	816	208
132120576	1840	64
134217728	1504	240
138412032	2656	192
142606336	1552	400
146800640	4304	208
150994944	2832	320
155189248	5472	192
159383552	5056	240
163577856	3472	256
167772160	912	112
171966464	1024	176
176160768	1632	240
180355072	1088	112
184549376	1344	240
188743680	1360	240
192937984	1904	272
197132288	1136	112
201326592	496	48
205520896	1280	176
209715200	848	64
213909504	1088	208
218103808	640	144
222298112	752	96
226492416	2368	528
230686720	3568	512
234881024	3568	416
239075328	3424	304
243269632	1440	272
247463936	624	48
251658240	352	48
255852544	48	32
260046848	240	80
264241152	496	96
268435456	896	160
276824064	1424	176
285212672	752	112
293601280	112	32
301989888	0	0
310378496	0	0
318767104	0	0
327155712	0	0
335544320	0	0
343932928	0	0
352321536	0	0
360710144	0	0
369098752	0	0
377487360	0	0
385875968	0	0
394264576	0	0
402653184	0	0
411041792	0	0
419430400	0	0
427819008	0	0
436207616	0	0
444596224	0	0
452984832	0	0
461373440	0	0
469762048	0	0
478150656	0	0
486539264	0	0
494927872	0	0
503316480	0	0
511705088	0	0
520093696	0	0
528482304	0	0
536870912	0	0
553648128	0	0
570425344	0	0
587202560	0	0
603979776	0	0
620756992	0	0
637534208	0	0
654311424	0	0
671088640	0	0
687865856	0	0
704643072	0	0
721420288	0	0
738197504	0	0
754974720	0	0
771751936	0	0
788529152	0	0
805306368	0	0
822083584	0	0
838860800	0	0
855638016	0	0
872415232	0	0
889192448	0	0
905969664	0	0
922746880	0	0
939524096	0	0
956301312	0	0
973078528	0	0
989855744	0	0
1006632960	0	0
1023410176	0	0
1040187392	0	0
1056964608	0	0
1073741824	0	0
1107296256	0	0
1140850688	0	0
1174405120	0	0
1207959552	0	0
1241513984	0	0
1275068416	0	0
1308622848	0	0
1342177280	0	0
1375731712	0	0
1409286144	0	0
1442840576	0	0
1476395008	0	0
1509949440	0	0
1543503872	0	0
1577058304	0	0
1610612736	0	0
1644167168	0	0
1677721600	0	0
1711276032	0	0
1744830464	0	0
1778384896	0	0
1811939328	0	0
1845493760	0	0
1879048192	0	0
1912602624	0	0
1946157056	0	0
1979711488	0	0
2013265920	0	0
2046820352	0	0
2080374784	0	0
2113929216	0	0
2147483648	0	0
2214592512	0	0
2281701376	0	0
2348810240	0	0
2415919104	0	0
2483027968	0	0
2550136832	0	0
2617245696	0	0
2684354560	0	0
2751463424	0	0
2818572288	0	0
2885681152	0	0
2952790016	0	0
3019898880	0	0
3087007744	0	0
3154116608	0	0
3221225472	0	0
3288334336	0	0
3355443200	0	0
3422552064	0	0
3489660928	0	0
3556769792	0	0
3623878656	0	0
3690987520	0	0
3758096384	0	0
3825205248	0	0
3892314112	0	0
3959422976	0	0
4026531840	0	0
4093640704	0	0
4160749568	0	0
4227858432	0	0
~~~~~~~~~~Reuse Distance Profiler output end~~~~~~~~~~

DRAM Statistics
 CHANNEL 0
 RQ ROW_BUFFER_HIT:     938302  ROW_BUFFER_MISS:    1924129
 DBUS AVG_CONGESTED_CYCLE:    3.89103
 WQ ROW_BUFFER_HIT:     316316  ROW_BUFFER_MISS:    2261093  FULL:          0


CPU 0 Branch Prediction Accuracy: 97.0951% MPKI: 7.384 Average ROB Occupancy at Mispredict: 39.2518
Branch type MPKI
BRANCH_DIRECT_JUMP: 8.66667e-06
BRANCH_INDIRECT: 0.221977
BRANCH_CONDITIONAL: 5.92525
BRANCH_DIRECT_CALL: 0.000124
BRANCH_INDIRECT_CALL: 0.259021
BRANCH_RETURN: 0.977624

