
*** ChampSim Multicore Out-of-Order Simulator ***

Warmup Instructions: 500000000
Simulation Instructions: 1500000000
Number of CPUs: 1
Off-chip DRAM Size: 4 GiB Channels: 1 Width: 64-bit Data Rate: 3200 MT/s

VirtualMemory physical capacity: 8588881920 num_ppages: 2096895
VirtualMemory page size: 4096 log2_page_size: 12

CPU 0 runs traces/600.perlbench_s-210B.champsimtrace.xz
CPU 0 Bimodal branch predictor
Basic BTB sets: 1024 ways: 8 indirect buffer size: 4096 RAS size: 64
Initializing LRU.
Initializing LRU.
Initializing LRU.
Initializing LRU.
Initializing rdLRU.
Initializing LRU.
Initializing LRU.
Heartbeat CPU 0 instructions: 10000001 cycles: 2511542 heartbeat IPC: 3.98162 cumulative IPC: 3.98162 (Simulation time: 0 hr 0 min 49 sec) 
Heartbeat CPU 0 instructions: 20000001 cycles: 5011542 heartbeat IPC: 4 cumulative IPC: 3.99079 (Simulation time: 0 hr 1 min 34 sec) 
Heartbeat CPU 0 instructions: 30000001 cycles: 7511542 heartbeat IPC: 4 cumulative IPC: 3.99385 (Simulation time: 0 hr 2 min 15 sec) 
Heartbeat CPU 0 instructions: 40000001 cycles: 10012004 heartbeat IPC: 3.99926 cumulative IPC: 3.9952 (Simulation time: 0 hr 3 min 16 sec) 
Heartbeat CPU 0 instructions: 50000003 cycles: 12512590 heartbeat IPC: 3.99906 cumulative IPC: 3.99598 (Simulation time: 0 hr 4 min 16 sec) 
Heartbeat CPU 0 instructions: 60000000 cycles: 15013118 heartbeat IPC: 3.99915 cumulative IPC: 3.99651 (Simulation time: 0 hr 5 min 3 sec) 
Heartbeat CPU 0 instructions: 70000000 cycles: 17513118 heartbeat IPC: 4 cumulative IPC: 3.997 (Simulation time: 0 hr 5 min 44 sec) 
Heartbeat CPU 0 instructions: 80000000 cycles: 20013118 heartbeat IPC: 4 cumulative IPC: 3.99738 (Simulation time: 0 hr 6 min 34 sec) 
Heartbeat CPU 0 instructions: 90000003 cycles: 22521362 heartbeat IPC: 3.98685 cumulative IPC: 3.99621 (Simulation time: 0 hr 7 min 7 sec) 
Heartbeat CPU 0 instructions: 100000000 cycles: 25022577 heartbeat IPC: 3.99806 cumulative IPC: 3.99639 (Simulation time: 0 hr 7 min 47 sec) 
Heartbeat CPU 0 instructions: 110000000 cycles: 27522577 heartbeat IPC: 4 cumulative IPC: 3.99672 (Simulation time: 0 hr 8 min 41 sec) 
Heartbeat CPU 0 instructions: 120000000 cycles: 30022577 heartbeat IPC: 4 cumulative IPC: 3.99699 (Simulation time: 0 hr 9 min 42 sec) 
Heartbeat CPU 0 instructions: 130000002 cycles: 32523266 heartbeat IPC: 3.9989 cumulative IPC: 3.99714 (Simulation time: 0 hr 10 min 26 sec) 
Heartbeat CPU 0 instructions: 140000001 cycles: 35023536 heartbeat IPC: 3.99957 cumulative IPC: 3.99731 (Simulation time: 0 hr 11 min 1 sec) 
Heartbeat CPU 0 instructions: 150000002 cycles: 37523889 heartbeat IPC: 3.99944 cumulative IPC: 3.99745 (Simulation time: 0 hr 11 min 39 sec) 
Heartbeat CPU 0 instructions: 160000002 cycles: 40023889 heartbeat IPC: 4 cumulative IPC: 3.99761 (Simulation time: 0 hr 12 min 15 sec) 
Heartbeat CPU 0 instructions: 170000003 cycles: 42525266 heartbeat IPC: 3.9978 cumulative IPC: 3.99762 (Simulation time: 0 hr 13 min 4 sec) 
Heartbeat CPU 0 instructions: 180000003 cycles: 45025266 heartbeat IPC: 4 cumulative IPC: 3.99776 (Simulation time: 0 hr 14 min 5 sec) 
Heartbeat CPU 0 instructions: 190000003 cycles: 47525266 heartbeat IPC: 4 cumulative IPC: 3.99787 (Simulation time: 0 hr 15 min 1 sec) 
Heartbeat CPU 0 instructions: 200000003 cycles: 50026122 heartbeat IPC: 3.99863 cumulative IPC: 3.99791 (Simulation time: 0 hr 15 min 52 sec) 
Heartbeat CPU 0 instructions: 210000003 cycles: 52526290 heartbeat IPC: 3.99973 cumulative IPC: 3.998 (Simulation time: 0 hr 16 min 36 sec) 
Heartbeat CPU 0 instructions: 220000003 cycles: 55026290 heartbeat IPC: 4 cumulative IPC: 3.99809 (Simulation time: 0 hr 17 min 22 sec) 
Heartbeat CPU 0 instructions: 230000002 cycles: 57526474 heartbeat IPC: 3.99971 cumulative IPC: 3.99816 (Simulation time: 0 hr 18 min 17 sec) 
Heartbeat CPU 0 instructions: 240000002 cycles: 60027540 heartbeat IPC: 3.9983 cumulative IPC: 3.99816 (Simulation time: 0 hr 19 min 11 sec) 
Heartbeat CPU 0 instructions: 250000001 cycles: 62528168 heartbeat IPC: 3.999 cumulative IPC: 3.9982 (Simulation time: 0 hr 20 min 7 sec) 
Heartbeat CPU 0 instructions: 260000002 cycles: 65028316 heartbeat IPC: 3.99976 cumulative IPC: 3.99826 (Simulation time: 0 hr 20 min 52 sec) 
Heartbeat CPU 0 instructions: 270000002 cycles: 67528316 heartbeat IPC: 4 cumulative IPC: 3.99832 (Simulation time: 0 hr 21 min 29 sec) 
Heartbeat CPU 0 instructions: 280000002 cycles: 70028316 heartbeat IPC: 4 cumulative IPC: 3.99838 (Simulation time: 0 hr 22 min 6 sec) 
Heartbeat CPU 0 instructions: 290000000 cycles: 72528913 heartbeat IPC: 3.99904 cumulative IPC: 3.99841 (Simulation time: 0 hr 22 min 42 sec) 
Heartbeat CPU 0 instructions: 300000000 cycles: 75029121 heartbeat IPC: 3.99967 cumulative IPC: 3.99845 (Simulation time: 0 hr 23 min 25 sec) 
Heartbeat CPU 0 instructions: 310000000 cycles: 77530230 heartbeat IPC: 3.99823 cumulative IPC: 3.99844 (Simulation time: 0 hr 24 min 4 sec) 
Heartbeat CPU 0 instructions: 320000003 cycles: 80031179 heartbeat IPC: 3.99848 cumulative IPC: 3.99844 (Simulation time: 0 hr 24 min 53 sec) 
Heartbeat CPU 0 instructions: 330000003 cycles: 82532112 heartbeat IPC: 3.99851 cumulative IPC: 3.99844 (Simulation time: 0 hr 25 min 44 sec) 
Heartbeat CPU 0 instructions: 340000001 cycles: 85032140 heartbeat IPC: 3.99995 cumulative IPC: 3.99849 (Simulation time: 0 hr 26 min 28 sec) 
Heartbeat CPU 0 instructions: 350000002 cycles: 87540301 heartbeat IPC: 3.98699 cumulative IPC: 3.99816 (Simulation time: 0 hr 27 min 2 sec) 
Heartbeat CPU 0 instructions: 360000003 cycles: 90048389 heartbeat IPC: 3.9871 cumulative IPC: 3.99785 (Simulation time: 0 hr 27 min 55 sec) 
Heartbeat CPU 0 instructions: 370000002 cycles: 92548571 heartbeat IPC: 3.99971 cumulative IPC: 3.9979 (Simulation time: 0 hr 28 min 44 sec) 
Heartbeat CPU 0 instructions: 380000002 cycles: 95048976 heartbeat IPC: 3.99935 cumulative IPC: 3.99794 (Simulation time: 0 hr 29 min 34 sec) 
Heartbeat CPU 0 instructions: 390000002 cycles: 97549478 heartbeat IPC: 3.9992 cumulative IPC: 3.99797 (Simulation time: 0 hr 30 min 22 sec) 
Heartbeat CPU 0 instructions: 400000002 cycles: 100049478 heartbeat IPC: 4 cumulative IPC: 3.99802 (Simulation time: 0 hr 30 min 58 sec) 
Heartbeat CPU 0 instructions: 410000002 cycles: 102549478 heartbeat IPC: 4 cumulative IPC: 3.99807 (Simulation time: 0 hr 31 min 33 sec) 
Heartbeat CPU 0 instructions: 420000000 cycles: 105049801 heartbeat IPC: 3.99948 cumulative IPC: 3.9981 (Simulation time: 0 hr 32 min 9 sec) 
Heartbeat CPU 0 instructions: 430000000 cycles: 107550023 heartbeat IPC: 3.99964 cumulative IPC: 3.99814 (Simulation time: 0 hr 33 min 2 sec) 
Heartbeat CPU 0 instructions: 440000001 cycles: 110058740 heartbeat IPC: 3.9861 cumulative IPC: 3.99787 (Simulation time: 0 hr 33 min 53 sec) 
Heartbeat CPU 0 instructions: 450000001 cycles: 112558740 heartbeat IPC: 4 cumulative IPC: 3.99791 (Simulation time: 0 hr 34 min 30 sec) 
Heartbeat CPU 0 instructions: 460000001 cycles: 115058740 heartbeat IPC: 4 cumulative IPC: 3.99796 (Simulation time: 0 hr 35 min 13 sec) 
Heartbeat CPU 0 instructions: 470000001 cycles: 117570561 heartbeat IPC: 3.98118 cumulative IPC: 3.9976 (Simulation time: 0 hr 36 min 3 sec) 
Heartbeat CPU 0 instructions: 480000000 cycles: 120077167 heartbeat IPC: 3.98946 cumulative IPC: 3.99743 (Simulation time: 0 hr 36 min 48 sec) 
Heartbeat CPU 0 instructions: 490000000 cycles: 122578096 heartbeat IPC: 3.99851 cumulative IPC: 3.99745 (Simulation time: 0 hr 37 min 40 sec) 
Heartbeat CPU 0 instructions: 500000001 cycles: 125078173 heartbeat IPC: 3.99988 cumulative IPC: 3.9975 (Simulation time: 0 hr 38 min 41 sec) 

Warmup complete CPU 0 instructions: 500000001 cycles: 125078173 (Simulation time: 0 hr 38 min 41 sec) 

Heartbeat CPU 0 instructions: 510000001 cycles: 134633604 heartbeat IPC: 1.04653 cumulative IPC: 1.04653 (Simulation time: 0 hr 39 min 30 sec) 
Heartbeat CPU 0 instructions: 520000000 cycles: 148672741 heartbeat IPC: 0.712294 cumulative IPC: 0.847653 (Simulation time: 0 hr 40 min 27 sec) 
Heartbeat CPU 0 instructions: 530000003 cycles: 161466767 heartbeat IPC: 0.781615 cumulative IPC: 0.824434 (Simulation time: 0 hr 41 min 26 sec) 
Heartbeat CPU 0 instructions: 540000001 cycles: 172262334 heartbeat IPC: 0.926306 cumulative IPC: 0.847742 (Simulation time: 0 hr 42 min 23 sec) 
Heartbeat CPU 0 instructions: 550000002 cycles: 185870184 heartbeat IPC: 0.73487 cumulative IPC: 0.822477 (Simulation time: 0 hr 43 min 40 sec) 
Heartbeat CPU 0 instructions: 560000000 cycles: 192070257 heartbeat IPC: 1.61288 cumulative IPC: 0.895628 (Simulation time: 0 hr 44 min 47 sec) 
Heartbeat CPU 0 instructions: 570000000 cycles: 198090220 heartbeat IPC: 1.66114 cumulative IPC: 0.958746 (Simulation time: 0 hr 45 min 48 sec) 
Heartbeat CPU 0 instructions: 580000000 cycles: 204365482 heartbeat IPC: 1.59356 cumulative IPC: 1.00899 (Simulation time: 0 hr 47 min 8 sec) 
Heartbeat CPU 0 instructions: 590000001 cycles: 210622601 heartbeat IPC: 1.59818 cumulative IPC: 1.05208 (Simulation time: 0 hr 48 min 18 sec) 
Heartbeat CPU 0 instructions: 600000000 cycles: 220910327 heartbeat IPC: 0.972032 cumulative IPC: 1.04349 (Simulation time: 0 hr 49 min 45 sec) 
Heartbeat CPU 0 instructions: 610000000 cycles: 233678640 heartbeat IPC: 0.783189 cumulative IPC: 1.01289 (Simulation time: 0 hr 51 min 12 sec) 
Heartbeat CPU 0 instructions: 620000001 cycles: 246649017 heartbeat IPC: 0.770988 cumulative IPC: 0.987079 (Simulation time: 0 hr 52 min 0 sec) 
Heartbeat CPU 0 instructions: 630000002 cycles: 256553195 heartbeat IPC: 1.00968 cumulative IPC: 0.988781 (Simulation time: 0 hr 52 min 55 sec) 
Heartbeat CPU 0 instructions: 640000000 cycles: 267290437 heartbeat IPC: 0.931338 cumulative IPC: 0.984444 (Simulation time: 0 hr 54 min 13 sec) 
Heartbeat CPU 0 instructions: 650000000 cycles: 280567735 heartbeat IPC: 0.753165 cumulative IPC: 0.964695 (Simulation time: 0 hr 55 min 6 sec) 
Heartbeat CPU 0 instructions: 660000000 cycles: 293287893 heartbeat IPC: 0.786154 cumulative IPC: 0.951194 (Simulation time: 0 hr 55 min 55 sec) 
Heartbeat CPU 0 instructions: 670000003 cycles: 301686937 heartbeat IPC: 1.19061 cumulative IPC: 0.96258 (Simulation time: 0 hr 56 min 46 sec) 
Heartbeat CPU 0 instructions: 680000000 cycles: 316478779 heartbeat IPC: 0.676048 cumulative IPC: 0.940436 (Simulation time: 0 hr 57 min 40 sec) 
Heartbeat CPU 0 instructions: 690000001 cycles: 329581688 heartbeat IPC: 0.763189 cumulative IPC: 0.929079 (Simulation time: 0 hr 58 min 31 sec) 
Heartbeat CPU 0 instructions: 700000000 cycles: 334651475 heartbeat IPC: 1.97247 cumulative IPC: 0.95432 (Simulation time: 0 hr 59 min 19 sec) 
Heartbeat CPU 0 instructions: 710000003 cycles: 340030793 heartbeat IPC: 1.85897 cumulative IPC: 0.976959 (Simulation time: 1 hr 0 min 4 sec) 
Heartbeat CPU 0 instructions: 720000003 cycles: 345465171 heartbeat IPC: 1.84014 cumulative IPC: 0.998244 (Simulation time: 1 hr 0 min 46 sec) 
Heartbeat CPU 0 instructions: 730000001 cycles: 350691600 heartbeat IPC: 1.91335 cumulative IPC: 1.01944 (Simulation time: 1 hr 1 min 29 sec) 
Heartbeat CPU 0 instructions: 740000002 cycles: 355806730 heartbeat IPC: 1.95498 cumulative IPC: 1.04018 (Simulation time: 1 hr 2 min 14 sec) 
Heartbeat CPU 0 instructions: 750000001 cycles: 360908603 heartbeat IPC: 1.96006 cumulative IPC: 1.06008 (Simulation time: 1 hr 3 min 29 sec) 
Heartbeat CPU 0 instructions: 760000001 cycles: 366111298 heartbeat IPC: 1.92208 cumulative IPC: 1.07869 (Simulation time: 1 hr 4 min 27 sec) 
Heartbeat CPU 0 instructions: 770000002 cycles: 371274205 heartbeat IPC: 1.93689 cumulative IPC: 1.09669 (Simulation time: 1 hr 5 min 14 sec) 
Heartbeat CPU 0 instructions: 780000002 cycles: 376683757 heartbeat IPC: 1.84858 cumulative IPC: 1.11285 (Simulation time: 1 hr 5 min 57 sec) 
Heartbeat CPU 0 instructions: 790000000 cycles: 381844331 heartbeat IPC: 1.93777 cumulative IPC: 1.12943 (Simulation time: 1 hr 6 min 43 sec) 
Heartbeat CPU 0 instructions: 800000004 cycles: 387193755 heartbeat IPC: 1.86936 cumulative IPC: 1.14453 (Simulation time: 1 hr 7 min 27 sec) 
Heartbeat CPU 0 instructions: 810000001 cycles: 392203462 heartbeat IPC: 1.99612 cumulative IPC: 1.1605 (Simulation time: 1 hr 8 min 13 sec) 
Heartbeat CPU 0 instructions: 820000002 cycles: 397114448 heartbeat IPC: 2.03625 cumulative IPC: 1.17631 (Simulation time: 1 hr 8 min 52 sec) 
Heartbeat CPU 0 instructions: 830000004 cycles: 402009156 heartbeat IPC: 2.04302 cumulative IPC: 1.19163 (Simulation time: 1 hr 9 min 30 sec) 
Heartbeat CPU 0 instructions: 840000003 cycles: 407054932 heartbeat IPC: 1.98186 cumulative IPC: 1.20577 (Simulation time: 1 hr 10 min 14 sec) 
Heartbeat CPU 0 instructions: 850000002 cycles: 412367441 heartbeat IPC: 1.88235 cumulative IPC: 1.21828 (Simulation time: 1 hr 10 min 58 sec) 
Heartbeat CPU 0 instructions: 860000000 cycles: 417721957 heartbeat IPC: 1.86758 cumulative IPC: 1.23016 (Simulation time: 1 hr 11 min 42 sec) 
Heartbeat CPU 0 instructions: 870000004 cycles: 423161515 heartbeat IPC: 1.83839 cumulative IPC: 1.24126 (Simulation time: 1 hr 12 min 26 sec) 
Heartbeat CPU 0 instructions: 880000001 cycles: 428378140 heartbeat IPC: 1.91695 cumulative IPC: 1.25289 (Simulation time: 1 hr 13 min 13 sec) 
Heartbeat CPU 0 instructions: 890000001 cycles: 433651826 heartbeat IPC: 1.89621 cumulative IPC: 1.26388 (Simulation time: 1 hr 14 min 0 sec) 
Heartbeat CPU 0 instructions: 900000001 cycles: 438749978 heartbeat IPC: 1.9615 cumulative IPC: 1.27522 (Simulation time: 1 hr 14 min 47 sec) 
Heartbeat CPU 0 instructions: 910000002 cycles: 444107256 heartbeat IPC: 1.86662 cumulative IPC: 1.28515 (Simulation time: 1 hr 15 min 29 sec) 
Heartbeat CPU 0 instructions: 920000001 cycles: 449559775 heartbeat IPC: 1.83401 cumulative IPC: 1.29437 (Simulation time: 1 hr 16 min 12 sec) 
Heartbeat CPU 0 instructions: 930000002 cycles: 454732334 heartbeat IPC: 1.93328 cumulative IPC: 1.3044 (Simulation time: 1 hr 16 min 56 sec) 
Heartbeat CPU 0 instructions: 940000002 cycles: 460292445 heartbeat IPC: 1.79853 cumulative IPC: 1.31259 (Simulation time: 1 hr 17 min 40 sec) 
Heartbeat CPU 0 instructions: 950000003 cycles: 465953860 heartbeat IPC: 1.76634 cumulative IPC: 1.32013 (Simulation time: 1 hr 19 min 0 sec) 
Heartbeat CPU 0 instructions: 960000000 cycles: 470967095 heartbeat IPC: 1.99472 cumulative IPC: 1.32991 (Simulation time: 1 hr 20 min 13 sec) 
Heartbeat CPU 0 instructions: 970000000 cycles: 476033296 heartbeat IPC: 1.97387 cumulative IPC: 1.3392 (Simulation time: 1 hr 21 min 32 sec) 
Heartbeat CPU 0 instructions: 980000000 cycles: 481459036 heartbeat IPC: 1.84307 cumulative IPC: 1.34687 (Simulation time: 1 hr 22 min 30 sec) 
Heartbeat CPU 0 instructions: 990000004 cycles: 486540806 heartbeat IPC: 1.96782 cumulative IPC: 1.3556 (Simulation time: 1 hr 23 min 19 sec) 
Heartbeat CPU 0 instructions: 1000000000 cycles: 491621381 heartbeat IPC: 1.96828 cumulative IPC: 1.3641 (Simulation time: 1 hr 24 min 6 sec) 
Heartbeat CPU 0 instructions: 1010000002 cycles: 496408233 heartbeat IPC: 2.08906 cumulative IPC: 1.37344 (Simulation time: 1 hr 24 min 50 sec) 
Heartbeat CPU 0 instructions: 1020000004 cycles: 501333888 heartbeat IPC: 2.03019 cumulative IPC: 1.38204 (Simulation time: 1 hr 25 min 38 sec) 
Heartbeat CPU 0 instructions: 1030000000 cycles: 506700894 heartbeat IPC: 1.86324 cumulative IPC: 1.38881 (Simulation time: 1 hr 26 min 23 sec) 
Heartbeat CPU 0 instructions: 1040000001 cycles: 511931949 heartbeat IPC: 1.91166 cumulative IPC: 1.39588 (Simulation time: 1 hr 27 min 41 sec) 
Heartbeat CPU 0 instructions: 1050000000 cycles: 516993823 heartbeat IPC: 1.97555 cumulative IPC: 1.40336 (Simulation time: 1 hr 28 min 31 sec) 
Heartbeat CPU 0 instructions: 1060000002 cycles: 522253169 heartbeat IPC: 1.90138 cumulative IPC: 1.40996 (Simulation time: 1 hr 29 min 21 sec) 
Heartbeat CPU 0 instructions: 1070000000 cycles: 527380539 heartbeat IPC: 1.95032 cumulative IPC: 1.41684 (Simulation time: 1 hr 30 min 9 sec) 
Heartbeat CPU 0 instructions: 1080000004 cycles: 532316058 heartbeat IPC: 2.02613 cumulative IPC: 1.42423 (Simulation time: 1 hr 30 min 53 sec) 
Heartbeat CPU 0 instructions: 1090000000 cycles: 537568922 heartbeat IPC: 1.90372 cumulative IPC: 1.43034 (Simulation time: 1 hr 31 min 45 sec) 
Heartbeat CPU 0 instructions: 1100000000 cycles: 543164229 heartbeat IPC: 1.78721 cumulative IPC: 1.43511 (Simulation time: 1 hr 32 min 54 sec) 
Heartbeat CPU 0 instructions: 1110000000 cycles: 548136937 heartbeat IPC: 2.01098 cumulative IPC: 1.44188 (Simulation time: 1 hr 34 min 17 sec) 
Heartbeat CPU 0 instructions: 1120000001 cycles: 553288379 heartbeat IPC: 1.9412 cumulative IPC: 1.44789 (Simulation time: 1 hr 35 min 24 sec) 
Heartbeat CPU 0 instructions: 1130000002 cycles: 558732142 heartbeat IPC: 1.83696 cumulative IPC: 1.45277 (Simulation time: 1 hr 36 min 21 sec) 
Heartbeat CPU 0 instructions: 1140000003 cycles: 563968116 heartbeat IPC: 1.90986 cumulative IPC: 1.45822 (Simulation time: 1 hr 37 min 36 sec) 
Heartbeat CPU 0 instructions: 1150000000 cycles: 569040124 heartbeat IPC: 1.97161 cumulative IPC: 1.46409 (Simulation time: 1 hr 38 min 58 sec) 
Heartbeat CPU 0 instructions: 1160000001 cycles: 573984158 heartbeat IPC: 2.02264 cumulative IPC: 1.47024 (Simulation time: 1 hr 40 min 20 sec) 
Heartbeat CPU 0 instructions: 1170000000 cycles: 578937982 heartbeat IPC: 2.01864 cumulative IPC: 1.47623 (Simulation time: 1 hr 41 min 41 sec) 
Heartbeat CPU 0 instructions: 1180000000 cycles: 584407958 heartbeat IPC: 1.82816 cumulative IPC: 1.48042 (Simulation time: 1 hr 42 min 55 sec) 
Heartbeat CPU 0 instructions: 1190000000 cycles: 589659404 heartbeat IPC: 1.90424 cumulative IPC: 1.48521 (Simulation time: 1 hr 44 min 5 sec) 
Heartbeat CPU 0 instructions: 1200000000 cycles: 595063281 heartbeat IPC: 1.85052 cumulative IPC: 1.48941 (Simulation time: 1 hr 45 min 9 sec) 
Heartbeat CPU 0 instructions: 1210000002 cycles: 600388163 heartbeat IPC: 1.87798 cumulative IPC: 1.49376 (Simulation time: 1 hr 46 min 19 sec) 
Heartbeat CPU 0 instructions: 1220000004 cycles: 607880289 heartbeat IPC: 1.33473 cumulative IPC: 1.49129 (Simulation time: 1 hr 47 min 37 sec) 
Heartbeat CPU 0 instructions: 1230000003 cycles: 616925424 heartbeat IPC: 1.10557 cumulative IPC: 1.4842 (Simulation time: 1 hr 48 min 58 sec) 
Heartbeat CPU 0 instructions: 1240000000 cycles: 627997282 heartbeat IPC: 0.90319 cumulative IPC: 1.47141 (Simulation time: 1 hr 50 min 25 sec) 
Heartbeat CPU 0 instructions: 1250000003 cycles: 641129417 heartbeat IPC: 0.761491 cumulative IPC: 1.45334 (Simulation time: 1 hr 51 min 48 sec) 
Heartbeat CPU 0 instructions: 1260000000 cycles: 647024061 heartbeat IPC: 1.69645 cumulative IPC: 1.45609 (Simulation time: 1 hr 52 min 37 sec) 
Heartbeat CPU 0 instructions: 1270000003 cycles: 652697902 heartbeat IPC: 1.76248 cumulative IPC: 1.45938 (Simulation time: 1 hr 53 min 22 sec) 
Heartbeat CPU 0 instructions: 1280000002 cycles: 658772763 heartbeat IPC: 1.64613 cumulative IPC: 1.46151 (Simulation time: 1 hr 54 min 9 sec) 
Heartbeat CPU 0 instructions: 1290000003 cycles: 664671023 heartbeat IPC: 1.69542 cumulative IPC: 1.46407 (Simulation time: 1 hr 54 min 59 sec) 
Heartbeat CPU 0 instructions: 1300000002 cycles: 670704321 heartbeat IPC: 1.65747 cumulative IPC: 1.46621 (Simulation time: 1 hr 55 min 47 sec) 
Heartbeat CPU 0 instructions: 1310000004 cycles: 676664427 heartbeat IPC: 1.67782 cumulative IPC: 1.46849 (Simulation time: 1 hr 56 min 36 sec) 
Heartbeat CPU 0 instructions: 1320000001 cycles: 688850957 heartbeat IPC: 0.820578 cumulative IPC: 1.45449 (Simulation time: 1 hr 57 min 28 sec) 
Heartbeat CPU 0 instructions: 1330000000 cycles: 701754530 heartbeat IPC: 0.774979 cumulative IPC: 1.43928 (Simulation time: 1 hr 58 min 24 sec) 
Heartbeat CPU 0 instructions: 1340000004 cycles: 714103385 heartbeat IPC: 0.809792 cumulative IPC: 1.42608 (Simulation time: 1 hr 59 min 28 sec) 
Heartbeat CPU 0 instructions: 1350000002 cycles: 720420998 heartbeat IPC: 1.58288 cumulative IPC: 1.42775 (Simulation time: 2 hr 0 min 14 sec) 
Heartbeat CPU 0 instructions: 1360000002 cycles: 726911167 heartbeat IPC: 1.54079 cumulative IPC: 1.42897 (Simulation time: 2 hr 1 min 2 sec) 
Heartbeat CPU 0 instructions: 1370000002 cycles: 733490462 heartbeat IPC: 1.51992 cumulative IPC: 1.42995 (Simulation time: 2 hr 1 min 50 sec) 
Heartbeat CPU 0 instructions: 1380000001 cycles: 745831880 heartbeat IPC: 0.81028 cumulative IPC: 1.41763 (Simulation time: 2 hr 2 min 39 sec) 
Heartbeat CPU 0 instructions: 1390000003 cycles: 758681436 heartbeat IPC: 0.778237 cumulative IPC: 1.40466 (Simulation time: 2 hr 3 min 29 sec) 
Heartbeat CPU 0 instructions: 1400000000 cycles: 768913918 heartbeat IPC: 0.97728 cumulative IPC: 1.39787 (Simulation time: 2 hr 4 min 19 sec) 
Heartbeat CPU 0 instructions: 1410000001 cycles: 774258176 heartbeat IPC: 1.87117 cumulative IPC: 1.40177 (Simulation time: 2 hr 5 min 3 sec) 
Heartbeat CPU 0 instructions: 1420000000 cycles: 779733961 heartbeat IPC: 1.82622 cumulative IPC: 1.40532 (Simulation time: 2 hr 5 min 50 sec) 
Heartbeat CPU 0 instructions: 1430000002 cycles: 785002833 heartbeat IPC: 1.89794 cumulative IPC: 1.40925 (Simulation time: 2 hr 6 min 34 sec) 
Heartbeat CPU 0 instructions: 1440000000 cycles: 790300410 heartbeat IPC: 1.88766 cumulative IPC: 1.41306 (Simulation time: 2 hr 7 min 22 sec) 
Heartbeat CPU 0 instructions: 1450000002 cycles: 795819776 heartbeat IPC: 1.8118 cumulative IPC: 1.41634 (Simulation time: 2 hr 8 min 46 sec) 
Heartbeat CPU 0 instructions: 1460000001 cycles: 801251189 heartbeat IPC: 1.84114 cumulative IPC: 1.41975 (Simulation time: 2 hr 9 min 37 sec) 
Heartbeat CPU 0 instructions: 1470000004 cycles: 806824449 heartbeat IPC: 1.79428 cumulative IPC: 1.42282 (Simulation time: 2 hr 10 min 25 sec) 
Heartbeat CPU 0 instructions: 1480000002 cycles: 812076211 heartbeat IPC: 1.90412 cumulative IPC: 1.4265 (Simulation time: 2 hr 11 min 11 sec) 
Heartbeat CPU 0 instructions: 1490000000 cycles: 817428408 heartbeat IPC: 1.86839 cumulative IPC: 1.42991 (Simulation time: 2 hr 11 min 59 sec) 
Heartbeat CPU 0 instructions: 1500000002 cycles: 822832374 heartbeat IPC: 1.85049 cumulative IPC: 1.43317 (Simulation time: 2 hr 12 min 49 sec) 
Heartbeat CPU 0 instructions: 1510000000 cycles: 828252038 heartbeat IPC: 1.84513 cumulative IPC: 1.43634 (Simulation time: 2 hr 13 min 35 sec) 
Heartbeat CPU 0 instructions: 1520000001 cycles: 833655372 heartbeat IPC: 1.85071 cumulative IPC: 1.4395 (Simulation time: 2 hr 14 min 23 sec) 
Heartbeat CPU 0 instructions: 1530000004 cycles: 839102118 heartbeat IPC: 1.83596 cumulative IPC: 1.44253 (Simulation time: 2 hr 15 min 41 sec) 
Heartbeat CPU 0 instructions: 1540000001 cycles: 847160371 heartbeat IPC: 1.24096 cumulative IPC: 1.44028 (Simulation time: 2 hr 16 min 50 sec) 
Heartbeat CPU 0 instructions: 1550000001 cycles: 859393444 heartbeat IPC: 0.817456 cumulative IPC: 1.4299 (Simulation time: 2 hr 17 min 57 sec) 
Heartbeat CPU 0 instructions: 1560000000 cycles: 872488497 heartbeat IPC: 0.763647 cumulative IPC: 1.41823 (Simulation time: 2 hr 19 min 11 sec) 
Heartbeat CPU 0 instructions: 1570000001 cycles: 878526713 heartbeat IPC: 1.65612 cumulative IPC: 1.42014 (Simulation time: 2 hr 19 min 59 sec) 
Heartbeat CPU 0 instructions: 1580000002 cycles: 884506392 heartbeat IPC: 1.67233 cumulative IPC: 1.42212 (Simulation time: 2 hr 20 min 47 sec) 
Heartbeat CPU 0 instructions: 1590000000 cycles: 890656484 heartbeat IPC: 1.62599 cumulative IPC: 1.42376 (Simulation time: 2 hr 21 min 39 sec) 
Heartbeat CPU 0 instructions: 1600000002 cycles: 896844412 heartbeat IPC: 1.61605 cumulative IPC: 1.4253 (Simulation time: 2 hr 22 min 42 sec) 
Heartbeat CPU 0 instructions: 1610000001 cycles: 910380824 heartbeat IPC: 0.738748 cumulative IPC: 1.41347 (Simulation time: 2 hr 23 min 44 sec) 
Heartbeat CPU 0 instructions: 1620000002 cycles: 921759736 heartbeat IPC: 0.878819 cumulative IPC: 1.40583 (Simulation time: 2 hr 24 min 31 sec) 
Heartbeat CPU 0 instructions: 1630000003 cycles: 932770844 heartbeat IPC: 0.908174 cumulative IPC: 1.39905 (Simulation time: 2 hr 25 min 21 sec) 
Heartbeat CPU 0 instructions: 1640000001 cycles: 938752914 heartbeat IPC: 1.67166 cumulative IPC: 1.40105 (Simulation time: 2 hr 26 min 15 sec) 
Heartbeat CPU 0 instructions: 1650000004 cycles: 944500941 heartbeat IPC: 1.73973 cumulative IPC: 1.40343 (Simulation time: 2 hr 27 min 23 sec) 
Heartbeat CPU 0 instructions: 1660000000 cycles: 950633385 heartbeat IPC: 1.63067 cumulative IPC: 1.40512 (Simulation time: 2 hr 28 min 43 sec) 
Heartbeat CPU 0 instructions: 1670000001 cycles: 956506007 heartbeat IPC: 1.70282 cumulative IPC: 1.40722 (Simulation time: 2 hr 29 min 35 sec) 
Heartbeat CPU 0 instructions: 1680000001 cycles: 962600601 heartbeat IPC: 1.6408 cumulative IPC: 1.40892 (Simulation time: 2 hr 30 min 22 sec) 
Heartbeat CPU 0 instructions: 1690000000 cycles: 968639884 heartbeat IPC: 1.65583 cumulative IPC: 1.41069 (Simulation time: 2 hr 31 min 7 sec) 
Heartbeat CPU 0 instructions: 1700000002 cycles: 980952228 heartbeat IPC: 0.812193 cumulative IPC: 1.40208 (Simulation time: 2 hr 31 min 56 sec) 
Heartbeat CPU 0 instructions: 1710000000 cycles: 993716537 heartbeat IPC: 0.783434 cumulative IPC: 1.39298 (Simulation time: 2 hr 32 min 45 sec) 
Heartbeat CPU 0 instructions: 1720000003 cycles: 1003976126 heartbeat IPC: 0.974698 cumulative IPC: 1.3881 (Simulation time: 2 hr 33 min 35 sec) 
Heartbeat CPU 0 instructions: 1730000002 cycles: 1010597340 heartbeat IPC: 1.5103 cumulative IPC: 1.38902 (Simulation time: 2 hr 34 min 22 sec) 
Heartbeat CPU 0 instructions: 1740000004 cycles: 1018113231 heartbeat IPC: 1.33051 cumulative IPC: 1.38852 (Simulation time: 2 hr 35 min 12 sec) 
Heartbeat CPU 0 instructions: 1750000001 cycles: 1032200636 heartbeat IPC: 0.709854 cumulative IPC: 1.37798 (Simulation time: 2 hr 36 min 23 sec) 
Heartbeat CPU 0 instructions: 1760000001 cycles: 1046119218 heartbeat IPC: 0.718464 cumulative IPC: 1.36802 (Simulation time: 2 hr 37 min 18 sec) 
Heartbeat CPU 0 instructions: 1770000001 cycles: 1052907515 heartbeat IPC: 1.47312 cumulative IPC: 1.36879 (Simulation time: 2 hr 38 min 14 sec) 
Heartbeat CPU 0 instructions: 1780000000 cycles: 1059983389 heartbeat IPC: 1.41325 cumulative IPC: 1.36912 (Simulation time: 2 hr 39 min 4 sec) 
Heartbeat CPU 0 instructions: 1790000000 cycles: 1069037252 heartbeat IPC: 1.1045 cumulative IPC: 1.36658 (Simulation time: 2 hr 39 min 53 sec) 
Heartbeat CPU 0 instructions: 1800000000 cycles: 1082818821 heartbeat IPC: 0.725607 cumulative IPC: 1.35736 (Simulation time: 2 hr 40 min 45 sec) 
Heartbeat CPU 0 instructions: 1810000003 cycles: 1095697499 heartbeat IPC: 0.776477 cumulative IPC: 1.34965 (Simulation time: 2 hr 41 min 38 sec) 
Heartbeat CPU 0 instructions: 1820000004 cycles: 1101023009 heartbeat IPC: 1.87775 cumulative IPC: 1.35254 (Simulation time: 2 hr 42 min 25 sec) 
Heartbeat CPU 0 instructions: 1830000002 cycles: 1106373915 heartbeat IPC: 1.86884 cumulative IPC: 1.35535 (Simulation time: 2 hr 43 min 9 sec) 
Heartbeat CPU 0 instructions: 1840000002 cycles: 1111514045 heartbeat IPC: 1.94548 cumulative IPC: 1.35843 (Simulation time: 2 hr 43 min 57 sec) 
Heartbeat CPU 0 instructions: 1850000002 cycles: 1116762179 heartbeat IPC: 1.90544 cumulative IPC: 1.36132 (Simulation time: 2 hr 44 min 46 sec) 
Heartbeat CPU 0 instructions: 1860000002 cycles: 1122076671 heartbeat IPC: 1.88165 cumulative IPC: 1.36409 (Simulation time: 2 hr 45 min 33 sec) 
Heartbeat CPU 0 instructions: 1870000000 cycles: 1127399901 heartbeat IPC: 1.87856 cumulative IPC: 1.36683 (Simulation time: 2 hr 46 min 20 sec) 
Heartbeat CPU 0 instructions: 1880000002 cycles: 1132418366 heartbeat IPC: 1.99264 cumulative IPC: 1.36994 (Simulation time: 2 hr 47 min 27 sec) 
Heartbeat CPU 0 instructions: 1890000000 cycles: 1137415456 heartbeat IPC: 2.00116 cumulative IPC: 1.37306 (Simulation time: 2 hr 48 min 9 sec) 
Heartbeat CPU 0 instructions: 1900000004 cycles: 1142741330 heartbeat IPC: 1.87763 cumulative IPC: 1.3757 (Simulation time: 2 hr 48 min 54 sec) 
Heartbeat CPU 0 instructions: 1910000003 cycles: 1148178635 heartbeat IPC: 1.83915 cumulative IPC: 1.37816 (Simulation time: 2 hr 49 min 39 sec) 
Heartbeat CPU 0 instructions: 1920000000 cycles: 1153488440 heartbeat IPC: 1.88331 cumulative IPC: 1.38077 (Simulation time: 2 hr 50 min 27 sec) 
Heartbeat CPU 0 instructions: 1930000003 cycles: 1158788917 heartbeat IPC: 1.88662 cumulative IPC: 1.38337 (Simulation time: 2 hr 51 min 11 sec) 
Heartbeat CPU 0 instructions: 1940000002 cycles: 1164109776 heartbeat IPC: 1.8794 cumulative IPC: 1.38591 (Simulation time: 2 hr 51 min 55 sec) 
Heartbeat CPU 0 instructions: 1950000000 cycles: 1169776556 heartbeat IPC: 1.76467 cumulative IPC: 1.38796 (Simulation time: 2 hr 52 min 40 sec) 
Heartbeat CPU 0 instructions: 1960000001 cycles: 1174930501 heartbeat IPC: 1.94026 cumulative IPC: 1.39067 (Simulation time: 2 hr 53 min 30 sec) 
Heartbeat CPU 0 instructions: 1970000001 cycles: 1180241945 heartbeat IPC: 1.88273 cumulative IPC: 1.39315 (Simulation time: 2 hr 54 min 16 sec) 
Heartbeat CPU 0 instructions: 1980000000 cycles: 1185334474 heartbeat IPC: 1.96366 cumulative IPC: 1.39589 (Simulation time: 2 hr 55 min 3 sec) 
Heartbeat CPU 0 instructions: 1990000002 cycles: 1190283598 heartbeat IPC: 2.02056 cumulative IPC: 1.39879 (Simulation time: 2 hr 55 min 49 sec) 
*** Reached end of trace: traces/600.perlbench_s-210B.champsimtrace.xz
Heartbeat CPU 0 instructions: 2000000000 cycles: 1195631283 heartbeat IPC: 1.86997 cumulative IPC: 1.40114 (Simulation time: 2 hr 56 min 34 sec) 
Finished CPU 0 instructions: 1500000004 cycles: 1070553111 cumulative IPC: 1.40114 (Simulation time: 2 hr 56 min 34 sec) 

ChampSim completed all CPUs

Region of Interest Statistics

CPU 0 cumulative IPC: 1.40114 instructions: 1500000004 cycles: 1070553111
cpu0_DTLB TOTAL     ACCESS:  283355777  HIT:  280984394  MISS:    2371383
cpu0_DTLB LOAD      ACCESS:  159428053  HIT:  157281199  MISS:    2146854
cpu0_DTLB RFO       ACCESS:  123927724  HIT:  123703195  MISS:     224529
cpu0_DTLB PREFETCH  ACCESS:          0  HIT:          0  MISS:          0
cpu0_DTLB WRITEBACK ACCESS:          0  HIT:          0  MISS:          0
cpu0_DTLB TRANSLATION ACCESS:          0  HIT:          0  MISS:          0
cpu0_DTLB PREFETCH  REQUESTED:          0  ISSUED:          0  USEFUL:          0  USELESS:          0
cpu0_DTLB AVERAGE MISS LATENCY: 9.62089 cycles
cpu0_ITLB TOTAL     ACCESS:  107455545  HIT:  107200880  MISS:     254665
cpu0_ITLB LOAD      ACCESS:  107455545  HIT:  107200880  MISS:     254665
cpu0_ITLB RFO       ACCESS:          0  HIT:          0  MISS:          0
cpu0_ITLB PREFETCH  ACCESS:          0  HIT:          0  MISS:          0
cpu0_ITLB WRITEBACK ACCESS:          0  HIT:          0  MISS:          0
cpu0_ITLB TRANSLATION ACCESS:          0  HIT:          0  MISS:          0
cpu0_ITLB PREFETCH  REQUESTED:          0  ISSUED:          0  USEFUL:          0  USELESS:          0
cpu0_ITLB AVERAGE MISS LATENCY: 9.17821 cycles
cpu0_L1I TOTAL     ACCESS:   95190160  HIT:   91648523  MISS:    3541637
cpu0_L1I LOAD      ACCESS:   95190160  HIT:   91648523  MISS:    3541637
cpu0_L1I RFO       ACCESS:          0  HIT:          0  MISS:          0
cpu0_L1I PREFETCH  ACCESS:          0  HIT:          0  MISS:          0
cpu0_L1I WRITEBACK ACCESS:          0  HIT:          0  MISS:          0
cpu0_L1I TRANSLATION ACCESS:          0  HIT:          0  MISS:          0
cpu0_L1I PREFETCH  REQUESTED:          0  ISSUED:          0  USEFUL:          0  USELESS:          0
cpu0_L1I AVERAGE MISS LATENCY: 14.0502 cycles
cpu0_STLB TOTAL     ACCESS:    2626048  HIT:    2535014  MISS:      91034
cpu0_STLB LOAD      ACCESS:    2401519  HIT:    2320771  MISS:      80748
cpu0_STLB RFO       ACCESS:     224529  HIT:     214243  MISS:      10286
cpu0_STLB PREFETCH  ACCESS:          0  HIT:          0  MISS:          0
cpu0_STLB WRITEBACK ACCESS:          0  HIT:          0  MISS:          0
cpu0_STLB TRANSLATION ACCESS:          0  HIT:          0  MISS:          0
cpu0_STLB PREFETCH  REQUESTED:          0  ISSUED:          0  USEFUL:          0  USELESS:          0
cpu0_STLB AVERAGE MISS LATENCY: 16.2442 cycles
cpu0_L1D TOTAL     ACCESS:  495695950  HIT:  493266539  MISS:    2429411
cpu0_L1D LOAD      ACCESS:  187787011  HIT:  185556670  MISS:    2230341
cpu0_L1D RFO       ACCESS:  307818376  HIT:  307628007  MISS:     190369
cpu0_L1D PREFETCH  ACCESS:          0  HIT:          0  MISS:          0
cpu0_L1D WRITEBACK ACCESS:          0  HIT:          0  MISS:          0
cpu0_L1D TRANSLATION ACCESS:      90563  HIT:      81862  MISS:       8701
cpu0_L1D PREFETCH  REQUESTED:          0  ISSUED:          0  USEFUL:          0  USELESS:          0
cpu0_L1D AVERAGE MISS LATENCY: 73.942 cycles
cpu0_L2C TOTAL     ACCESS:    6583826  HIT:    5408229  MISS:    1175597
cpu0_L2C LOAD      ACCESS:    5771896  HIT:    4664157  MISS:    1107739
cpu0_L2C RFO       ACCESS:     190351  HIT:     126176  MISS:      64175
cpu0_L2C PREFETCH  ACCESS:          0  HIT:          0  MISS:          0
cpu0_L2C WRITEBACK ACCESS:     612878  HIT:     609894  MISS:       2984
cpu0_L2C TRANSLATION ACCESS:       8701  HIT:       8002  MISS:        699
cpu0_L2C PREFETCH  REQUESTED:          0  ISSUED:          0  USEFUL:          0  USELESS:          0
cpu0_L2C AVERAGE MISS LATENCY: 139.183 cycles
LLC TOTAL     ACCESS:    1399984  HIT:     508265  MISS:     891719
LLC LOAD      ACCESS:    1107739  HIT:     264103  MISS:     843636
LLC RFO       ACCESS:      64175  HIT:      18629  MISS:      45546
LLC PREFETCH  ACCESS:          0  HIT:          0  MISS:          0
LLC WRITEBACK ACCESS:     227371  HIT:     224999  MISS:       2372
LLC TRANSLATION ACCESS:        699  HIT:        534  MISS:        165
LLC PREFETCH  REQUESTED:          0  ISSUED:          0  USEFUL:          0  USELESS:          0
LLC AVERAGE MISS LATENCY: 155.877 cycles
~~~~~~~~~~Reuse Distance Profiler output~~~~~~~~~~
0	107039104	6151152
1	49347456	7295792
2	35375280	9431488
3	30764240	7457568
4	21779120	6957760
5	14803104	3989040
6	14501184	4972336
7	17703168	4644832
8	13447856	4516320
9	11579520	4212096
10	14453136	4449600
11	14271648	5054336
12	9721664	3099168
13	9001888	3623392
14	8228448	2264512
15	7332192	2592320
16	8287952	3914288
17	7687056	2657216
18	7047808	2064176
19	6104960	2430064
20	6615456	2400848
21	6622224	2396336
22	5352976	1946064
23	6191680	2459968
24	3998112	1662240
25	3635360	1420128
26	4141520	1268608
27	4543024	1443696
28	3187520	1030192
29	3194528	1163408
30	2519968	800592
31	3644848	1973760
32	3328016	1067264
33	2356896	953712
34	2139216	1002816
35	2145584	811728
36	3002976	1583680
37	3390720	951824
38	1740608	792208
39	1705792	925600
40	2119088	1180224
41	1984176	1269344
42	2312656	920880
43	2221744	1500256
44	2644768	766720
45	1879728	731200
46	2119040	1099360
47	3017360	1211472
48	2686048	1906000
49	1544688	1020816
50	1806768	723168
51	1595984	807808
52	1366432	683472
53	1888992	773360
54	1988256	1133680
55	1067616	525840
56	1546416	658480
57	1959472	628032
58	1764448	562992
59	2129632	1417104
60	2146864	973968
61	2107840	1084240
62	1860112	772704
63	1375536	827568
64	3364752	2093872
66	2768976	1823024
68	2514224	1263024
70	2891168	1584496
72	2837904	1378688
74	1933392	993696
76	1760720	882208
78	1481024	665168
80	1454048	912544
82	2244992	1881488
84	1546960	1154976
86	1137360	783552
88	962144	658832
90	1246912	934208
92	1679840	1431904
94	1915648	1318464
96	1771360	1270816
98	1070192	688400
100	2043168	1605024
102	822656	534736
104	1189248	1010208
106	1183152	982896
108	1600432	1354272
110	909168	739472
112	797936	657152
114	862752	719648
116	1616272	1272896
118	1050848	724944
120	1062960	683472
122	977248	797296
124	713456	507888
126	1118304	542768
128	2405072	1407824
132	2338992	1442800
136	1888096	1259504
140	3728736	2789888
144	6050880	5282432
148	3246992	2512432
152	3610224	3376416
156	2079296	1958832
160	1284768	1103696
164	1097760	928624
168	1428144	1118624
172	1785152	1570464
176	2137488	1704880
180	2138656	1783008
184	1338768	1163568
188	959648	839744
192	715584	602144
196	539520	454096
200	633568	535472
204	547872	474752
208	521200	429168
212	541056	452272
216	455216	346848
220	478560	393616
224	361488	291440
228	427904	342928
232	568144	493392
236	587840	509184
240	346960	293392
244	487920	431424
248	494064	445504
252	314448	274208
256	582768	513808
264	1202400	1080384
272	748832	668336
280	2155952	1916096
288	729504	666848
296	1465008	1354384
304	792576	705008
312	560912	478672
320	464720	381696
328	673216	551312
336	709088	588768
344	709872	584000
352	783376	677824
360	657120	566064
368	624176	549552
376	589696	513104
384	743808	656816
392	379536	326960
400	257376	215536
408	251568	215440
416	277136	235952
424	278672	224336
432	320464	271488
440	239776	190048
448	184192	155712
456	201184	174608
464	192624	167968
472	170480	148928
480	133280	115328
488	100768	86800
496	115088	97696
504	103136	90624
512	201808	178864
528	253680	224208
544	276192	240112
560	297696	268256
576	381104	339472
592	292416	266832
608	188992	171136
624	326032	286352
640	152816	131072
656	106080	93504
672	152480	132144
688	120832	105008
704	103712	90352
720	127760	111184
736	111312	98832
752	103280	92880
768	98432	86448
784	102864	88608
800	93600	81056
816	89152	79840
832	85632	76960
848	79824	69808
864	96736	84560
880	109744	97008
896	80960	69120
912	71568	61264
928	68000	58752
944	62128	54400
960	68608	58128
976	73984	65024
992	62608	55040
1008	58672	51632
1024	107120	94672
1056	120928	110016
1088	128832	115088
1120	113232	100752
1152	129632	113504
1184	115840	101984
1216	98336	79440
1248	99392	82320
1280	100432	85712
1312	82880	68864
1344	99344	80896
1376	113232	93712
1408	107600	95664
1440	89168	79344
1472	84208	74448
1504	77376	67216
1536	81856	69584
1568	63568	54176
1600	52736	44928
1632	54800	47856
1664	54768	48512
1696	59216	52496
1728	50032	44272
1760	48048	41920
1792	49856	43856
1824	55040	47088
1856	43856	39440
1888	38912	34224
1920	42992	38400
1952	40032	34928
1984	43808	38176
2016	40672	35280
2048	84624	71200
2112	89312	76448
2176	69664	62592
2240	72912	65136
2304	69584	62656
2368	72800	64704
2432	62480	56256
2496	75664	68080
2560	81744	72864
2624	65744	57568
2688	64304	55728
2752	66352	60256
2816	62032	56784
2880	50000	43408
2944	59904	52880
3008	57360	49920
3072	62064	54544
3136	62256	54912
3200	63696	56992
3264	56256	50320
3328	44336	39776
3392	35904	32256
3456	32464	28560
3520	31152	26928
3584	29760	26368
3648	30896	26784
3712	33040	28880
3776	30096	26384
3840	32448	28928
3904	32880	28816
3968	27088	24256
4032	30736	27520
4096	53696	47408
4224	55184	48736
4352	67728	61824
4480	52576	46544
4608	52368	47200
4736	58448	52816
4864	52784	48000
4992	44304	39936
5120	43232	38224
5248	42880	38528
5376	38416	35040
5504	40912	37408
5632	44000	40816
5760	37952	34496
5888	29968	27088
6016	27744	25552
6144	28256	25712
6272	27472	25056
6400	32432	28592
6528	33792	31520
6656	25680	22816
6784	28512	26096
6912	25488	23152
7040	23856	21440
7168	29648	26944
7296	29200	26224
7424	35056	32928
7552	29376	26288
7680	29248	26736
7808	20464	18496
7936	20304	18336
8064	23088	21200
8192	39136	35232
8448	40464	36752
8704	67968	63120
8960	40288	37024
9216	37472	34384
9472	36304	33648
9728	28688	26128
9984	28016	25440
10240	31984	29008
10496	28960	25984
10752	28816	25600
11008	30080	27088
11264	28112	25664
11520	30976	28912
11776	29200	26432
12032	27664	24944
12288	28224	25552
12544	32304	29856
12800	24848	22528
13056	23856	21696
13312	24704	22336
13568	28560	26432
13824	29264	26832
14080	31024	28528
14336	32496	30048
14592	30384	27904
14848	34512	32096
15104	24304	22624
15360	25104	23232
15616	26336	24336
15872	26832	25200
16128	20688	19328
16384	45520	42016
16896	37248	33696
17408	42320	38992
17920	39504	36608
18432	39920	37568
18944	34160	31936
19456	28672	26432
19968	29664	27392
20480	25120	22896
20992	23056	20784
21504	24352	22080
22016	34720	31552
22528	50512	48288
23040	40800	38176
23552	30032	27504
24064	22352	20320
24576	24800	22384
25088	21280	19120
25600	19232	17120
26112	21440	19824
26624	17248	15824
27136	17392	15616
27648	17408	15888
28160	19312	17616
28672	18384	16640
29184	19600	18400
29696	17152	15696
30208	16864	15504
30720	13824	12400
31232	13872	12640
31744	11216	10272
32256	12128	11296
32768	30928	28512
33792	21984	20256
34816	30144	27760
35840	31152	28896
36864	16160	14352
37888	24032	22256
38912	18704	17136
39936	20512	18400
40960	21936	19888
41984	17520	15856
43008	16656	15040
44032	19488	17728
45056	17456	15456
46080	19056	16928
47104	16592	14912
48128	18240	16240
49152	21648	17920
50176	15776	13984
51200	11712	10144
52224	18816	15088
53248	15952	13168
54272	11552	9584
55296	11344	9680
56320	12192	11008
57344	9632	8400
58368	10608	9680
59392	10224	9456
60416	7520	7040
61440	7664	6816
62464	10112	9088
63488	7184	6640
64512	7664	7040
65536	17472	15792
67584	21216	19760
69632	12528	11152
71680	13616	12608
73728	22544	21552
75776	21616	20848
77824	11168	10352
79872	21024	19920
81920	26288	25056
83968	15248	14256
86016	8160	7424
88064	7840	7264
90112	8208	7488
92160	9408	8544
94208	8352	7584
96256	12816	11584
98304	25552	23408
100352	20112	18336
102400	16272	14912
104448	8688	8224
106496	5424	5008
108544	5232	4864
110592	9376	8784
112640	7712	7280
114688	5792	5360
116736	5744	5392
118784	8064	7456
120832	8320	7632
122880	6048	5504
124928	5824	5312
126976	3968	3680
129024	3696	3280
131072	7824	7280
135168	9056	8336
139264	7776	6960
143360	8368	7760
147456	12512	11424
151552	10224	9184
155648	9056	8208
159744	7392	6688
163840	14288	13408
167936	7232	6768
172032	6064	5568
176128	6528	6064
180224	5408	4832
184320	6048	5328
188416	5872	5456
192512	6016	5424
196608	4272	3824
200704	5232	4672
204800	7152	6624
208896	5920	5264
212992	6208	4992
217088	5120	4832
221184	6800	6272
225280	6176	5760
229376	4768	4432
233472	4480	4240
237568	4304	3888
241664	3696	3376
245760	4000	3616
249856	4256	3872
253952	3664	3440
258048	4560	4464
262144	8944	8272
270336	8960	8128
278528	8400	7744
286720	5888	5440
294912	5360	4944
303104	9264	8592
311296	9648	8976
319488	5776	5296
327680	5040	4704
335872	5712	5312
344064	6944	6272
352256	5328	4528
360448	5072	4864
368640	6416	5680
376832	5456	4992
385024	4560	4096
393216	5008	4528
401408	4656	3936
409600	4016	3632
417792	3920	3344
425984	3328	3072
434176	3168	2896
442368	3120	2768
450560	2592	2368
458752	2576	2240
466944	3056	2784
475136	3088	2672
483328	3488	3088
491520	2544	2320
499712	3232	2992
507904	3488	3376
516096	3312	2880
524288	8272	7632
540672	20016	19152
557056	19008	17696
573440	7072	6496
589824	5408	5104
606208	5152	4800
622592	4960	4448
638976	5344	5024
655360	4800	4512
671744	7040	6624
688128	4016	3776
704512	3344	2976
720896	2960	2720
737280	3040	2656
753664	1776	1472
770048	2416	2080
786432	2720	2288
802816	2128	1904
819200	1712	1456
835584	1968	1744
851968	1728	1504
868352	1520	1440
884736	1568	1408
901120	1664	1456
917504	1728	1536
933888	1504	1424
950272	2240	2016
966656	1248	1072
983040	1392	1136
999424	1024	912
1015808	1264	1104
1032192	1040	960
1048576	3184	2896
1081344	2656	2496
1114112	2976	2608
1146880	2400	2112
1179648	2064	1872
1212416	4432	3888
1245184	3152	2992
1277952	3248	2832
1310720	2512	2080
1343488	3728	3376
1376256	3392	2992
1409024	1584	1472
1441792	2656	2320
1474560	3248	2736
1507328	1648	1488
1540096	2320	2160
1572864	2176	2064
1605632	2064	2000
1638400	2576	2384
1671168	3120	2768
1703936	2768	2432
1736704	1888	1728
1769472	2272	2176
1802240	1456	1360
1835008	1952	1856
1867776	2496	2368
1900544	3296	3088
1933312	2496	2384
1966080	1952	1872
1998848	1200	1136
2031616	1328	1232
2064384	1136	1056
2097152	2816	2496
2162688	2080	1920
2228224	2576	2352
2293760	2000	1760
2359296	2688	2496
2424832	2496	2240
2490368	1808	1648
2555904	1264	1200
2621440	1680	1648
2686976	1760	1536
2752512	1312	1232
2818048	1808	1712
2883584	1648	1600
2949120	1392	1296
3014656	1168	1024
3080192	1216	1136
3145728	1264	1232
3211264	1504	1408
3276800	1104	960
3342336	1584	1520
3407872	1200	848
3473408	1360	1232
3538944	1088	976
3604480	672	640
3670016	944	864
3735552	1216	1088
3801088	1040	928
3866624	576	512
3932160	784	768
3997696	784	720
4063232	448	400
4128768	528	464
4194304	752	528
4325376	1424	1264
4456448	1088	1024
4587520	768	704
4718592	816	752
4849664	896	816
4980736	800	704
5111808	608	560
5242880	496	464
5373952	912	880
5505024	704	608
5636096	608	560
5767168	736	672
5898240	512	496
6029312	1040	736
6160384	448	400
6291456	704	656
6422528	608	560
6553600	1136	1088
6684672	768	736
6815744	496	480
6946816	800	592
7077888	720	688
7208960	480	464
7340032	480	400
7471104	304	256
7602176	544	544
7733248	912	816
7864320	560	384
7995392	624	592
8126464	880	816
8257536	560	544
8388608	1600	1488
8650752	2496	2432
8912896	1968	1792
9175040	1344	1200
9437184	2528	2192
9699328	11888	11456
9961472	4400	4128
10223616	10320	10016
10485760	3536	3360
10747904	3504	3392
11010048	4128	3856
11272192	13472	12880
11534336	14912	14496
11796480	15392	14928
12058624	9072	8688
12320768	2336	2080
12582912	2720	2560
12845056	1904	1728
13107200	12960	12624
13369344	5232	4896
13631488	9520	9216
13893632	2896	2848
14155776	2928	2896
14417920	3856	3760
14680064	8944	8704
14942208	13184	12496
15204352	18224	17600
15466496	11664	11472
15728640	8640	8400
15990784	12496	11936
16252928	6224	5824
16515072	5904	5664
16777216	10768	10464
17301504	4464	4096
17825792	5424	4752
18350080	10464	10000
18874368	17280	16512
19398656	23632	22544
19922944	8736	8128
20447232	7120	6800
20971520	22752	21824
21495808	16688	15808
22020096	5104	4784
22544384	8432	8080
23068672	7888	7504
23592960	24256	23712
24117248	7376	7040
24641536	5808	5472
25165824	4016	3680
25690112	5824	5600
26214400	5088	4864
26738688	6672	6400
27262976	4528	4080
27787264	8320	7840
28311552	14448	13984
28835840	31824	30912
29360128	13552	13056
29884416	13840	13360
30408704	11984	11664
30932992	16928	16560
31457280	2480	2368
31981568	1536	1392
32505856	1616	1424
33030144	1312	1072
33554432	2960	2816
34603008	2624	2432
35651584	1936	1888
36700160	2032	1952
37748736	2128	2032
38797312	2576	2560
39845888	3920	3808
40894464	2432	2368
41943040	3600	3408
42991616	4672	4512
44040192	3920	3648
45088768	1184	1152
46137344	2624	2384
47185920	3264	3104
48234496	3344	3152
49283072	4800	4352
50331648	5312	4800
51380224	4432	4128
52428800	7504	7280
53477376	13024	12464
54525952	21952	21328
55574528	944	848
56623104	624	624
57671680	528	368
58720256	816	768
59768832	720	672
60817408	1200	1136
61865984	1360	1248
62914560	448	432
63963136	1296	1216
65011712	832	784
66060288	592	592
67108864	1072	1056
69206016	944	880
71303168	1776	1744
73400320	2112	1968
75497472	2112	1856
77594624	672	624
79691776	1408	1312
81788928	720	528
83886080	1008	976
85983232	960	960
88080384	848	800
90177536	1296	1280
92274688	496	496
94371840	3584	3456
96468992	1008	928
98566144	832	784
100663296	1392	1264
102760448	1856	1680
104857600	2944	2832
106954752	1232	1136
109051904	720	688
111149056	1024	1008
113246208	672	672
115343360	1088	1072
117440512	992	976
119537664	528	512
121634816	528	512
123731968	1776	1664
125829120	1072	1040
127926272	1312	1280
130023424	720	688
132120576	880	864
134217728	1488	1440
138412032	1664	1616
142606336	1152	1104
146800640	912	848
150994944	1840	1776
155189248	1264	1136
159383552	1488	1424
163577856	2592	2480
167772160	1984	1920
171966464	1424	1360
176160768	6256	5344
180355072	24288	22656
184549376	17120	16528
188743680	64	64
192937984	2848	2736
197132288	32	16
201326592	96	64
205520896	720	496
209715200	1504	1280
213909504	16	0
218103808	128	96
222298112	1952	1872
226492416	48	16
230686720	1888	1680
234881024	448	288
239075328	16	16
243269632	304	144
247463936	96	64
251658240	192	192
255852544	48	48
260046848	48	48
264241152	16	16
268435456	16	0
276824064	16	16
285212672	16	0
293601280	0	0
301989888	0	0
310378496	0	0
318767104	64	64
327155712	64	48
335544320	16	16
343932928	48	48
352321536	0	0
360710144	0	0
369098752	32	32
377487360	16	16
385875968	16	16
394264576	0	0
402653184	0	0
411041792	0	0
419430400	16	0
427819008	0	0
436207616	0	0
444596224	0	0
452984832	0	0
461373440	0	0
469762048	0	0
478150656	0	0
486539264	0	0
494927872	0	0
503316480	0	0
511705088	0	0
520093696	0	0
528482304	0	0
536870912	0	0
553648128	0	0
570425344	0	0
587202560	0	0
603979776	0	0
620756992	0	0
637534208	0	0
654311424	0	0
671088640	0	0
687865856	0	0
704643072	0	0
721420288	0	0
738197504	0	0
754974720	0	0
771751936	0	0
788529152	0	0
805306368	0	0
822083584	0	0
838860800	0	0
855638016	0	0
872415232	0	0
889192448	0	0
905969664	0	0
922746880	0	0
939524096	0	0
956301312	0	0
973078528	0	0
989855744	0	0
1006632960	0	0
1023410176	0	0
1040187392	0	0
1056964608	0	0
1073741824	0	0
1107296256	0	0
1140850688	0	0
1174405120	0	0
1207959552	0	0
1241513984	0	0
1275068416	0	0
1308622848	0	0
1342177280	0	0
1375731712	0	0
1409286144	0	0
1442840576	0	0
1476395008	0	0
1509949440	0	0
1543503872	0	0
1577058304	0	0
1610612736	0	0
1644167168	0	0
1677721600	0	0
1711276032	0	0
1744830464	0	0
1778384896	0	0
1811939328	0	0
1845493760	0	0
1879048192	0	0
1912602624	0	0
1946157056	0	0
1979711488	0	0
2013265920	0	0
2046820352	0	0
2080374784	0	0
2113929216	0	0
2147483648	0	0
2214592512	0	0
2281701376	0	0
2348810240	0	0
2415919104	0	0
2483027968	0	0
2550136832	0	0
2617245696	0	0
2684354560	0	0
2751463424	0	0
2818572288	0	0
2885681152	0	0
2952790016	0	0
3019898880	0	0
3087007744	0	0
3154116608	0	0
3221225472	0	0
3288334336	0	0
3355443200	0	0
3422552064	0	0
3489660928	0	0
3556769792	0	0
3623878656	0	0
3690987520	0	0
3758096384	0	0
3825205248	0	0
3892314112	0	0
3959422976	0	0
4026531840	0	0
4093640704	0	0
4160749568	0	0
4227858432	0	0
~~~~~~~~~~Reuse Distance Profiler output end~~~~~~~~~~

DRAM Statistics
 CHANNEL 0
 RQ ROW_BUFFER_HIT:      94876  ROW_BUFFER_MISS:     794470
 DBUS AVG_CONGESTED_CYCLE:    3.84762
 WQ ROW_BUFFER_HIT:      99446  ROW_BUFFER_MISS:      60902  FULL:          0


CPU 0 Branch Prediction Accuracy: 96.2886% MPKI: 5.66211 Average ROB Occupancy at Mispredict: 89.8137
Branch type MPKI
BRANCH_DIRECT_JUMP: 0.00136067
BRANCH_INDIRECT: 0.381065
BRANCH_CONDITIONAL: 5.05936
BRANCH_DIRECT_CALL: 0.00142067
BRANCH_INDIRECT_CALL: 0.211229
BRANCH_RETURN: 0.00767467

