
*** ChampSim Multicore Out-of-Order Simulator ***

Warmup Instructions: 500000000
Simulation Instructions: 1500000000
Number of CPUs: 1
Off-chip DRAM Size: 4 GiB Channels: 1 Width: 64-bit Data Rate: 3200 MT/s

VirtualMemory physical capacity: 8588881920 num_ppages: 2096895
VirtualMemory page size: 4096 log2_page_size: 12

CPU 0 runs traces/600.perlbench_s-1273B.champsimtrace.xz
CPU 0 Bimodal branch predictor
Basic BTB sets: 1024 ways: 8 indirect buffer size: 4096 RAS size: 64
Initializing LRU.
Initializing LRU.
Initializing LRU.
Initializing LRU.
Initializing rdLRU.
Initializing LRU.
Initializing LRU.
Heartbeat CPU 0 instructions: 10000000 cycles: 2500565 heartbeat IPC: 3.9991 cumulative IPC: 3.9991 (Simulation time: 0 hr 0 min 49 sec) 
Heartbeat CPU 0 instructions: 20000000 cycles: 5001416 heartbeat IPC: 3.99864 cumulative IPC: 3.99887 (Simulation time: 0 hr 1 min 38 sec) 
Heartbeat CPU 0 instructions: 30000000 cycles: 7501416 heartbeat IPC: 4 cumulative IPC: 3.99924 (Simulation time: 0 hr 2 min 30 sec) 
Heartbeat CPU 0 instructions: 40000000 cycles: 10007767 heartbeat IPC: 3.98986 cumulative IPC: 3.9969 (Simulation time: 0 hr 3 min 16 sec) 
Heartbeat CPU 0 instructions: 50000002 cycles: 12508714 heartbeat IPC: 3.99849 cumulative IPC: 3.99721 (Simulation time: 0 hr 3 min 54 sec) 
Heartbeat CPU 0 instructions: 60000002 cycles: 15008714 heartbeat IPC: 4 cumulative IPC: 3.99768 (Simulation time: 0 hr 4 min 30 sec) 
Heartbeat CPU 0 instructions: 70000001 cycles: 17509452 heartbeat IPC: 3.99882 cumulative IPC: 3.99784 (Simulation time: 0 hr 5 min 18 sec) 
Heartbeat CPU 0 instructions: 80000003 cycles: 20009942 heartbeat IPC: 3.99922 cumulative IPC: 3.99801 (Simulation time: 0 hr 6 min 1 sec) 
Heartbeat CPU 0 instructions: 90000003 cycles: 22510273 heartbeat IPC: 3.99947 cumulative IPC: 3.99817 (Simulation time: 0 hr 6 min 52 sec) 
Heartbeat CPU 0 instructions: 100000001 cycles: 25010450 heartbeat IPC: 3.99972 cumulative IPC: 3.99833 (Simulation time: 0 hr 7 min 27 sec) 
Heartbeat CPU 0 instructions: 110000002 cycles: 27511126 heartbeat IPC: 3.99892 cumulative IPC: 3.99838 (Simulation time: 0 hr 8 min 14 sec) 
Heartbeat CPU 0 instructions: 120000000 cycles: 30011362 heartbeat IPC: 3.99962 cumulative IPC: 3.99849 (Simulation time: 0 hr 8 min 51 sec) 
Heartbeat CPU 0 instructions: 130000000 cycles: 32511362 heartbeat IPC: 4 cumulative IPC: 3.9986 (Simulation time: 0 hr 9 min 39 sec) 
Heartbeat CPU 0 instructions: 140000001 cycles: 35012444 heartbeat IPC: 3.99827 cumulative IPC: 3.99858 (Simulation time: 0 hr 10 min 23 sec) 
Heartbeat CPU 0 instructions: 150000000 cycles: 37512620 heartbeat IPC: 3.99972 cumulative IPC: 3.99865 (Simulation time: 0 hr 11 min 20 sec) 
Heartbeat CPU 0 instructions: 160000001 cycles: 40012837 heartbeat IPC: 3.99965 cumulative IPC: 3.99872 (Simulation time: 0 hr 12 min 10 sec) 
Heartbeat CPU 0 instructions: 170000002 cycles: 42513052 heartbeat IPC: 3.99966 cumulative IPC: 3.99877 (Simulation time: 0 hr 13 min 11 sec) 
Heartbeat CPU 0 instructions: 180000000 cycles: 45013248 heartbeat IPC: 3.99969 cumulative IPC: 3.99882 (Simulation time: 0 hr 13 min 49 sec) 
Heartbeat CPU 0 instructions: 190000000 cycles: 47514189 heartbeat IPC: 3.99849 cumulative IPC: 3.99881 (Simulation time: 0 hr 14 min 39 sec) 
Heartbeat CPU 0 instructions: 200000000 cycles: 50017232 heartbeat IPC: 3.99514 cumulative IPC: 3.99862 (Simulation time: 0 hr 15 min 23 sec) 
Heartbeat CPU 0 instructions: 210000000 cycles: 52525293 heartbeat IPC: 3.98714 cumulative IPC: 3.99807 (Simulation time: 0 hr 16 min 18 sec) 
Heartbeat CPU 0 instructions: 220000001 cycles: 55030972 heartbeat IPC: 3.99093 cumulative IPC: 3.99775 (Simulation time: 0 hr 17 min 2 sec) 
Heartbeat CPU 0 instructions: 230000001 cycles: 57531337 heartbeat IPC: 3.99942 cumulative IPC: 3.99782 (Simulation time: 0 hr 17 min 59 sec) 
Heartbeat CPU 0 instructions: 240000001 cycles: 60031793 heartbeat IPC: 3.99927 cumulative IPC: 3.99788 (Simulation time: 0 hr 18 min 44 sec) 
Heartbeat CPU 0 instructions: 250000001 cycles: 62531793 heartbeat IPC: 4 cumulative IPC: 3.99797 (Simulation time: 0 hr 19 min 40 sec) 
Heartbeat CPU 0 instructions: 260000003 cycles: 65032077 heartbeat IPC: 3.99955 cumulative IPC: 3.99803 (Simulation time: 0 hr 20 min 22 sec) 
Heartbeat CPU 0 instructions: 270000003 cycles: 67537719 heartbeat IPC: 3.99099 cumulative IPC: 3.99777 (Simulation time: 0 hr 20 min 56 sec) 
Heartbeat CPU 0 instructions: 280000003 cycles: 70037719 heartbeat IPC: 4 cumulative IPC: 3.99785 (Simulation time: 0 hr 21 min 51 sec) 
Heartbeat CPU 0 instructions: 290000003 cycles: 72545464 heartbeat IPC: 3.98765 cumulative IPC: 3.99749 (Simulation time: 0 hr 22 min 49 sec) 
Heartbeat CPU 0 instructions: 300000000 cycles: 75055079 heartbeat IPC: 3.98467 cumulative IPC: 3.99706 (Simulation time: 0 hr 23 min 37 sec) 
Heartbeat CPU 0 instructions: 310000003 cycles: 77558239 heartbeat IPC: 3.99495 cumulative IPC: 3.997 (Simulation time: 0 hr 24 min 17 sec) 
Heartbeat CPU 0 instructions: 320000002 cycles: 80064229 heartbeat IPC: 3.99044 cumulative IPC: 3.99679 (Simulation time: 0 hr 25 min 0 sec) 
Heartbeat CPU 0 instructions: 330000002 cycles: 82564518 heartbeat IPC: 3.99954 cumulative IPC: 3.99687 (Simulation time: 0 hr 25 min 56 sec) 
Heartbeat CPU 0 instructions: 340000000 cycles: 85064991 heartbeat IPC: 3.99924 cumulative IPC: 3.99694 (Simulation time: 0 hr 26 min 52 sec) 
Heartbeat CPU 0 instructions: 350000000 cycles: 87566664 heartbeat IPC: 3.99732 cumulative IPC: 3.99695 (Simulation time: 0 hr 27 min 28 sec) 
Heartbeat CPU 0 instructions: 360000003 cycles: 90072215 heartbeat IPC: 3.99114 cumulative IPC: 3.99679 (Simulation time: 0 hr 28 min 0 sec) 
Heartbeat CPU 0 instructions: 370000002 cycles: 92593361 heartbeat IPC: 3.96645 cumulative IPC: 3.99597 (Simulation time: 0 hr 28 min 47 sec) 
Heartbeat CPU 0 instructions: 380000002 cycles: 95105863 heartbeat IPC: 3.9801 cumulative IPC: 3.99555 (Simulation time: 0 hr 29 min 23 sec) 
Heartbeat CPU 0 instructions: 390000001 cycles: 97606361 heartbeat IPC: 3.9992 cumulative IPC: 3.99564 (Simulation time: 0 hr 29 min 59 sec) 
Heartbeat CPU 0 instructions: 400000001 cycles: 100106361 heartbeat IPC: 4 cumulative IPC: 3.99575 (Simulation time: 0 hr 30 min 36 sec) 
Heartbeat CPU 0 instructions: 410000001 cycles: 102615955 heartbeat IPC: 3.98471 cumulative IPC: 3.99548 (Simulation time: 0 hr 31 min 19 sec) 
Heartbeat CPU 0 instructions: 420000001 cycles: 105115955 heartbeat IPC: 4 cumulative IPC: 3.99559 (Simulation time: 0 hr 31 min 55 sec) 
Heartbeat CPU 0 instructions: 430000003 cycles: 107616686 heartbeat IPC: 3.99883 cumulative IPC: 3.99566 (Simulation time: 0 hr 32 min 30 sec) 
Heartbeat CPU 0 instructions: 440000001 cycles: 110128061 heartbeat IPC: 3.98188 cumulative IPC: 3.99535 (Simulation time: 0 hr 33 min 4 sec) 
Heartbeat CPU 0 instructions: 450000001 cycles: 112628219 heartbeat IPC: 3.99975 cumulative IPC: 3.99545 (Simulation time: 0 hr 33 min 47 sec) 
Heartbeat CPU 0 instructions: 460000001 cycles: 115128219 heartbeat IPC: 4 cumulative IPC: 3.99555 (Simulation time: 0 hr 34 min 24 sec) 
Heartbeat CPU 0 instructions: 470000002 cycles: 117628939 heartbeat IPC: 3.99885 cumulative IPC: 3.99562 (Simulation time: 0 hr 35 min 0 sec) 
Heartbeat CPU 0 instructions: 480000001 cycles: 120129736 heartbeat IPC: 3.99872 cumulative IPC: 3.99568 (Simulation time: 0 hr 35 min 54 sec) 
Heartbeat CPU 0 instructions: 490000002 cycles: 122630357 heartbeat IPC: 3.99901 cumulative IPC: 3.99575 (Simulation time: 0 hr 36 min 47 sec) 
Heartbeat CPU 0 instructions: 500000002 cycles: 125130357 heartbeat IPC: 4 cumulative IPC: 3.99583 (Simulation time: 0 hr 37 min 38 sec) 

Warmup complete CPU 0 instructions: 500000002 cycles: 125130357 (Simulation time: 0 hr 37 min 38 sec) 

Heartbeat CPU 0 instructions: 510000002 cycles: 130075321 heartbeat IPC: 2.02226 cumulative IPC: 2.02226 (Simulation time: 0 hr 38 min 28 sec) 
Heartbeat CPU 0 instructions: 520000004 cycles: 135407187 heartbeat IPC: 1.87552 cumulative IPC: 1.94613 (Simulation time: 0 hr 39 min 26 sec) 
Heartbeat CPU 0 instructions: 530000001 cycles: 140597246 heartbeat IPC: 1.92676 cumulative IPC: 1.93963 (Simulation time: 0 hr 40 min 31 sec) 
Heartbeat CPU 0 instructions: 540000000 cycles: 146046848 heartbeat IPC: 1.835 cumulative IPC: 1.91237 (Simulation time: 0 hr 41 min 22 sec) 
Heartbeat CPU 0 instructions: 550000002 cycles: 151416930 heartbeat IPC: 1.86217 cumulative IPC: 1.90211 (Simulation time: 0 hr 42 min 13 sec) 
Heartbeat CPU 0 instructions: 560000003 cycles: 156694052 heartbeat IPC: 1.89497 cumulative IPC: 1.90092 (Simulation time: 0 hr 43 min 2 sec) 
Heartbeat CPU 0 instructions: 570000000 cycles: 161804822 heartbeat IPC: 1.95665 cumulative IPC: 1.90868 (Simulation time: 0 hr 44 min 6 sec) 
Heartbeat CPU 0 instructions: 580000002 cycles: 167061793 heartbeat IPC: 1.90224 cumulative IPC: 1.90788 (Simulation time: 0 hr 44 min 52 sec) 
Heartbeat CPU 0 instructions: 590000002 cycles: 172617627 heartbeat IPC: 1.79991 cumulative IPC: 1.89524 (Simulation time: 0 hr 45 min 48 sec) 
Heartbeat CPU 0 instructions: 600000002 cycles: 177749289 heartbeat IPC: 1.94869 cumulative IPC: 1.90046 (Simulation time: 0 hr 46 min 53 sec) 
Heartbeat CPU 0 instructions: 610000004 cycles: 183308315 heartbeat IPC: 1.79888 cumulative IPC: 1.89075 (Simulation time: 0 hr 47 min 58 sec) 
Heartbeat CPU 0 instructions: 620000000 cycles: 188935978 heartbeat IPC: 1.77694 cumulative IPC: 1.88071 (Simulation time: 0 hr 48 min 56 sec) 
Heartbeat CPU 0 instructions: 630000000 cycles: 193964795 heartbeat IPC: 1.98854 cumulative IPC: 1.88859 (Simulation time: 0 hr 50 min 22 sec) 
Heartbeat CPU 0 instructions: 640000000 cycles: 199038059 heartbeat IPC: 1.97112 cumulative IPC: 1.89425 (Simulation time: 0 hr 51 min 11 sec) 
Heartbeat CPU 0 instructions: 650000003 cycles: 204494104 heartbeat IPC: 1.83283 cumulative IPC: 1.89003 (Simulation time: 0 hr 51 min 56 sec) 
Heartbeat CPU 0 instructions: 660000004 cycles: 209563062 heartbeat IPC: 1.97279 cumulative IPC: 1.895 (Simulation time: 0 hr 53 min 17 sec) 
Heartbeat CPU 0 instructions: 670000002 cycles: 214660163 heartbeat IPC: 1.9619 cumulative IPC: 1.89881 (Simulation time: 0 hr 54 min 5 sec) 
Heartbeat CPU 0 instructions: 680000003 cycles: 219519374 heartbeat IPC: 2.05795 cumulative IPC: 1.907 (Simulation time: 0 hr 54 min 53 sec) 
Heartbeat CPU 0 instructions: 690000001 cycles: 224474637 heartbeat IPC: 2.01806 cumulative IPC: 1.91254 (Simulation time: 0 hr 55 min 43 sec) 
Heartbeat CPU 0 instructions: 700000004 cycles: 229976888 heartbeat IPC: 1.81744 cumulative IPC: 1.90755 (Simulation time: 0 hr 56 min 28 sec) 
Heartbeat CPU 0 instructions: 710000000 cycles: 235088242 heartbeat IPC: 1.95643 cumulative IPC: 1.90982 (Simulation time: 0 hr 57 min 24 sec) 
Heartbeat CPU 0 instructions: 720000001 cycles: 240204775 heartbeat IPC: 1.95445 cumulative IPC: 1.91181 (Simulation time: 0 hr 58 min 23 sec) 
Heartbeat CPU 0 instructions: 730000000 cycles: 245441657 heartbeat IPC: 1.90953 cumulative IPC: 1.91171 (Simulation time: 0 hr 59 min 22 sec) 
Heartbeat CPU 0 instructions: 740000003 cycles: 250566576 heartbeat IPC: 1.95125 cumulative IPC: 1.91332 (Simulation time: 1 hr 0 min 11 sec) 
Heartbeat CPU 0 instructions: 750000000 cycles: 255778633 heartbeat IPC: 1.91863 cumulative IPC: 1.91353 (Simulation time: 1 hr 0 min 56 sec) 
Heartbeat CPU 0 instructions: 760000003 cycles: 261140499 heartbeat IPC: 1.86502 cumulative IPC: 1.91162 (Simulation time: 1 hr 1 min 40 sec) 
Heartbeat CPU 0 instructions: 770000002 cycles: 266330725 heartbeat IPC: 1.9267 cumulative IPC: 1.91218 (Simulation time: 1 hr 2 min 26 sec) 
Heartbeat CPU 0 instructions: 780000002 cycles: 271420020 heartbeat IPC: 1.96491 cumulative IPC: 1.91401 (Simulation time: 1 hr 3 min 30 sec) 
Heartbeat CPU 0 instructions: 790000000 cycles: 276872618 heartbeat IPC: 1.83399 cumulative IPC: 1.91114 (Simulation time: 1 hr 4 min 29 sec) 
Heartbeat CPU 0 instructions: 800000001 cycles: 282009994 heartbeat IPC: 1.94652 cumulative IPC: 1.91229 (Simulation time: 1 hr 5 min 18 sec) 
Heartbeat CPU 0 instructions: 810000004 cycles: 287253092 heartbeat IPC: 1.90727 cumulative IPC: 1.91213 (Simulation time: 1 hr 6 min 28 sec) 
Heartbeat CPU 0 instructions: 820000000 cycles: 292274507 heartbeat IPC: 1.99147 cumulative IPC: 1.91452 (Simulation time: 1 hr 7 min 34 sec) 
Heartbeat CPU 0 instructions: 830000002 cycles: 297211437 heartbeat IPC: 2.02555 cumulative IPC: 1.9177 (Simulation time: 1 hr 8 min 42 sec) 
Heartbeat CPU 0 instructions: 840000000 cycles: 302706006 heartbeat IPC: 1.81998 cumulative IPC: 1.91468 (Simulation time: 1 hr 9 min 50 sec) 
Heartbeat CPU 0 instructions: 850000002 cycles: 307979761 heartbeat IPC: 1.89618 cumulative IPC: 1.91414 (Simulation time: 1 hr 11 min 12 sec) 
Heartbeat CPU 0 instructions: 860000001 cycles: 313497914 heartbeat IPC: 1.8122 cumulative IPC: 1.91116 (Simulation time: 1 hr 12 min 7 sec) 
Heartbeat CPU 0 instructions: 870000001 cycles: 318805441 heartbeat IPC: 1.88412 cumulative IPC: 1.91042 (Simulation time: 1 hr 13 min 5 sec) 
Heartbeat CPU 0 instructions: 880000002 cycles: 326758044 heartbeat IPC: 1.25745 cumulative IPC: 1.88466 (Simulation time: 1 hr 14 min 8 sec) 
Heartbeat CPU 0 instructions: 890000004 cycles: 338179662 heartbeat IPC: 0.875533 cumulative IPC: 1.83056 (Simulation time: 1 hr 15 min 29 sec) 
Heartbeat CPU 0 instructions: 900000002 cycles: 346684891 heartbeat IPC: 1.17575 cumulative IPC: 1.80542 (Simulation time: 1 hr 16 min 18 sec) 
Heartbeat CPU 0 instructions: 910000002 cycles: 358108096 heartbeat IPC: 0.875411 cumulative IPC: 1.75982 (Simulation time: 1 hr 17 min 35 sec) 
Heartbeat CPU 0 instructions: 920000000 cycles: 363509535 heartbeat IPC: 1.85136 cumulative IPC: 1.7619 (Simulation time: 1 hr 18 min 22 sec) 
Heartbeat CPU 0 instructions: 930000000 cycles: 368724264 heartbeat IPC: 1.91765 cumulative IPC: 1.76523 (Simulation time: 1 hr 19 min 18 sec) 
Heartbeat CPU 0 instructions: 940000004 cycles: 373909291 heartbeat IPC: 1.92863 cumulative IPC: 1.76864 (Simulation time: 1 hr 20 min 15 sec) 
Heartbeat CPU 0 instructions: 950000001 cycles: 379316402 heartbeat IPC: 1.84942 cumulative IPC: 1.77036 (Simulation time: 1 hr 21 min 21 sec) 
Heartbeat CPU 0 instructions: 960000003 cycles: 384620449 heartbeat IPC: 1.88535 cumulative IPC: 1.77271 (Simulation time: 1 hr 22 min 27 sec) 
Heartbeat CPU 0 instructions: 970000000 cycles: 389745612 heartbeat IPC: 1.95116 cumulative IPC: 1.77616 (Simulation time: 1 hr 23 min 47 sec) 
Heartbeat CPU 0 instructions: 980000002 cycles: 394695454 heartbeat IPC: 2.02027 cumulative IPC: 1.78065 (Simulation time: 1 hr 24 min 54 sec) 
Heartbeat CPU 0 instructions: 990000000 cycles: 400051810 heartbeat IPC: 1.86694 cumulative IPC: 1.78233 (Simulation time: 1 hr 26 min 2 sec) 
Heartbeat CPU 0 instructions: 1000000001 cycles: 405526642 heartbeat IPC: 1.82654 cumulative IPC: 1.78319 (Simulation time: 1 hr 27 min 14 sec) 
Heartbeat CPU 0 instructions: 1010000000 cycles: 410866080 heartbeat IPC: 1.87286 cumulative IPC: 1.78487 (Simulation time: 1 hr 28 min 31 sec) 
Heartbeat CPU 0 instructions: 1020000002 cycles: 416224538 heartbeat IPC: 1.86621 cumulative IPC: 1.78636 (Simulation time: 1 hr 29 min 45 sec) 
Heartbeat CPU 0 instructions: 1030000000 cycles: 421569008 heartbeat IPC: 1.87109 cumulative IPC: 1.78789 (Simulation time: 1 hr 30 min 48 sec) 
Heartbeat CPU 0 instructions: 1040000000 cycles: 427189884 heartbeat IPC: 1.77908 cumulative IPC: 1.78773 (Simulation time: 1 hr 31 min 52 sec) 
Heartbeat CPU 0 instructions: 1050000003 cycles: 432342427 heartbeat IPC: 1.94079 cumulative IPC: 1.79029 (Simulation time: 1 hr 32 min 58 sec) 
Heartbeat CPU 0 instructions: 1060000000 cycles: 437678428 heartbeat IPC: 1.87406 cumulative IPC: 1.79172 (Simulation time: 1 hr 33 min 59 sec) 
Heartbeat CPU 0 instructions: 1070000000 cycles: 442692928 heartbeat IPC: 1.99422 cumulative IPC: 1.79492 (Simulation time: 1 hr 34 min 52 sec) 
Heartbeat CPU 0 instructions: 1080000000 cycles: 447929257 heartbeat IPC: 1.90973 cumulative IPC: 1.79678 (Simulation time: 1 hr 35 min 40 sec) 
Heartbeat CPU 0 instructions: 1090000001 cycles: 453134832 heartbeat IPC: 1.92102 cumulative IPC: 1.79876 (Simulation time: 1 hr 36 min 28 sec) 
Heartbeat CPU 0 instructions: 1100000001 cycles: 458499366 heartbeat IPC: 1.86409 cumulative IPC: 1.79981 (Simulation time: 1 hr 37 min 18 sec) 
Heartbeat CPU 0 instructions: 1110000001 cycles: 463691869 heartbeat IPC: 1.92585 cumulative IPC: 1.80174 (Simulation time: 1 hr 38 min 17 sec) 
Heartbeat CPU 0 instructions: 1120000000 cycles: 469049697 heartbeat IPC: 1.86643 cumulative IPC: 1.80275 (Simulation time: 1 hr 39 min 34 sec) 
Heartbeat CPU 0 instructions: 1130000003 cycles: 474422692 heartbeat IPC: 1.86116 cumulative IPC: 1.80365 (Simulation time: 1 hr 40 min 54 sec) 
Heartbeat CPU 0 instructions: 1140000001 cycles: 479680801 heartbeat IPC: 1.90182 cumulative IPC: 1.8051 (Simulation time: 1 hr 42 min 12 sec) 
Heartbeat CPU 0 instructions: 1150000001 cycles: 484761335 heartbeat IPC: 1.9683 cumulative IPC: 1.80741 (Simulation time: 1 hr 43 min 13 sec) 
Heartbeat CPU 0 instructions: 1160000003 cycles: 490222871 heartbeat IPC: 1.83099 cumulative IPC: 1.80776 (Simulation time: 1 hr 43 min 59 sec) 
Heartbeat CPU 0 instructions: 1170000000 cycles: 495650661 heartbeat IPC: 1.84237 cumulative IPC: 1.80827 (Simulation time: 1 hr 44 min 46 sec) 
Heartbeat CPU 0 instructions: 1180000003 cycles: 503486226 heartbeat IPC: 1.27623 cumulative IPC: 1.79725 (Simulation time: 1 hr 45 min 32 sec) 
Heartbeat CPU 0 instructions: 1190000001 cycles: 515409287 heartbeat IPC: 0.838711 cumulative IPC: 1.76797 (Simulation time: 1 hr 46 min 34 sec) 
Heartbeat CPU 0 instructions: 1200000002 cycles: 526604082 heartbeat IPC: 0.893272 cumulative IPC: 1.74358 (Simulation time: 1 hr 47 min 23 sec) 
Heartbeat CPU 0 instructions: 1210000004 cycles: 537293807 heartbeat IPC: 0.935478 cumulative IPC: 1.72262 (Simulation time: 1 hr 48 min 13 sec) 
Heartbeat CPU 0 instructions: 1220000003 cycles: 542880202 heartbeat IPC: 1.79006 cumulative IPC: 1.72352 (Simulation time: 1 hr 48 min 59 sec) 
Heartbeat CPU 0 instructions: 1230000000 cycles: 548478252 heartbeat IPC: 1.78634 cumulative IPC: 1.72435 (Simulation time: 1 hr 49 min 47 sec) 
Heartbeat CPU 0 instructions: 1240000003 cycles: 553804647 heartbeat IPC: 1.87744 cumulative IPC: 1.72625 (Simulation time: 1 hr 50 min 30 sec) 
Heartbeat CPU 0 instructions: 1250000003 cycles: 559504680 heartbeat IPC: 1.75438 cumulative IPC: 1.72662 (Simulation time: 1 hr 51 min 16 sec) 
Heartbeat CPU 0 instructions: 1260000001 cycles: 565169081 heartbeat IPC: 1.76541 cumulative IPC: 1.72712 (Simulation time: 1 hr 52 min 3 sec) 
Heartbeat CPU 0 instructions: 1270000001 cycles: 570912943 heartbeat IPC: 1.74099 cumulative IPC: 1.7273 (Simulation time: 1 hr 53 min 0 sec) 
Heartbeat CPU 0 instructions: 1280000001 cycles: 576343625 heartbeat IPC: 1.84139 cumulative IPC: 1.72867 (Simulation time: 1 hr 53 min 47 sec) 
Heartbeat CPU 0 instructions: 1290000002 cycles: 582045215 heartbeat IPC: 1.7539 cumulative IPC: 1.72899 (Simulation time: 1 hr 54 min 44 sec) 
Heartbeat CPU 0 instructions: 1300000002 cycles: 587750806 heartbeat IPC: 1.75267 cumulative IPC: 1.72928 (Simulation time: 1 hr 55 min 38 sec) 
Heartbeat CPU 0 instructions: 1310000002 cycles: 593397742 heartbeat IPC: 1.77087 cumulative IPC: 1.72978 (Simulation time: 1 hr 56 min 36 sec) 
Heartbeat CPU 0 instructions: 1320000003 cycles: 601372705 heartbeat IPC: 1.25392 cumulative IPC: 1.72181 (Simulation time: 1 hr 57 min 59 sec) 
Heartbeat CPU 0 instructions: 1330000003 cycles: 614660627 heartbeat IPC: 0.752563 cumulative IPC: 1.6955 (Simulation time: 1 hr 59 min 27 sec) 
Heartbeat CPU 0 instructions: 1340000002 cycles: 626840384 heartbeat IPC: 0.821034 cumulative IPC: 1.67427 (Simulation time: 2 hr 0 min 34 sec) 
Heartbeat CPU 0 instructions: 1350000001 cycles: 638639436 heartbeat IPC: 0.847526 cumulative IPC: 1.65528 (Simulation time: 2 hr 1 min 39 sec) 
Heartbeat CPU 0 instructions: 1360000002 cycles: 644964828 heartbeat IPC: 1.58093 cumulative IPC: 1.65437 (Simulation time: 2 hr 2 min 26 sec) 
Heartbeat CPU 0 instructions: 1370000000 cycles: 651387416 heartbeat IPC: 1.557 cumulative IPC: 1.65318 (Simulation time: 2 hr 3 min 34 sec) 
Heartbeat CPU 0 instructions: 1380000000 cycles: 657679730 heartbeat IPC: 1.58924 cumulative IPC: 1.65243 (Simulation time: 2 hr 4 min 57 sec) 
Heartbeat CPU 0 instructions: 1390000001 cycles: 668051550 heartbeat IPC: 0.964151 cumulative IPC: 1.63928 (Simulation time: 2 hr 6 min 22 sec) 
Heartbeat CPU 0 instructions: 1400000003 cycles: 682259998 heartbeat IPC: 0.703807 cumulative IPC: 1.61542 (Simulation time: 2 hr 7 min 47 sec) 
Heartbeat CPU 0 instructions: 1410000001 cycles: 693895118 heartbeat IPC: 0.859467 cumulative IPC: 1.59996 (Simulation time: 2 hr 8 min 46 sec) 
Heartbeat CPU 0 instructions: 1420000001 cycles: 703261878 heartbeat IPC: 1.06761 cumulative IPC: 1.59133 (Simulation time: 2 hr 9 min 36 sec) 
Heartbeat CPU 0 instructions: 1430000001 cycles: 708597927 heartbeat IPC: 1.87405 cumulative IPC: 1.59392 (Simulation time: 2 hr 10 min 29 sec) 
Heartbeat CPU 0 instructions: 1440000002 cycles: 713947107 heartbeat IPC: 1.86945 cumulative IPC: 1.59642 (Simulation time: 2 hr 11 min 33 sec) 
Heartbeat CPU 0 instructions: 1450000001 cycles: 719352656 heartbeat IPC: 1.84995 cumulative IPC: 1.59873 (Simulation time: 2 hr 12 min 31 sec) 
Heartbeat CPU 0 instructions: 1460000001 cycles: 724405524 heartbeat IPC: 1.97907 cumulative IPC: 1.60194 (Simulation time: 2 hr 13 min 41 sec) 
Heartbeat CPU 0 instructions: 1470000003 cycles: 729801448 heartbeat IPC: 1.85325 cumulative IPC: 1.60418 (Simulation time: 2 hr 14 min 37 sec) 
Heartbeat CPU 0 instructions: 1480000000 cycles: 735238327 heartbeat IPC: 1.83929 cumulative IPC: 1.60627 (Simulation time: 2 hr 15 min 29 sec) 
Heartbeat CPU 0 instructions: 1490000002 cycles: 740741680 heartbeat IPC: 1.81707 cumulative IPC: 1.60816 (Simulation time: 2 hr 16 min 26 sec) 
Heartbeat CPU 0 instructions: 1500000000 cycles: 746303545 heartbeat IPC: 1.79796 cumulative IPC: 1.60986 (Simulation time: 2 hr 17 min 15 sec) 
Heartbeat CPU 0 instructions: 1510000000 cycles: 751681416 heartbeat IPC: 1.85947 cumulative IPC: 1.612 (Simulation time: 2 hr 18 min 6 sec) 
Heartbeat CPU 0 instructions: 1520000004 cycles: 756812634 heartbeat IPC: 1.94886 cumulative IPC: 1.61474 (Simulation time: 2 hr 18 min 55 sec) 
Heartbeat CPU 0 instructions: 1530000004 cycles: 762143138 heartbeat IPC: 1.876 cumulative IPC: 1.61692 (Simulation time: 2 hr 19 min 44 sec) 
Heartbeat CPU 0 instructions: 1540000003 cycles: 767509522 heartbeat IPC: 1.86345 cumulative IPC: 1.61898 (Simulation time: 2 hr 20 min 34 sec) 
Heartbeat CPU 0 instructions: 1550000002 cycles: 772905088 heartbeat IPC: 1.85337 cumulative IPC: 1.62093 (Simulation time: 2 hr 21 min 22 sec) 
Heartbeat CPU 0 instructions: 1560000000 cycles: 778281637 heartbeat IPC: 1.85993 cumulative IPC: 1.6229 (Simulation time: 2 hr 22 min 20 sec) 
Heartbeat CPU 0 instructions: 1570000002 cycles: 783553149 heartbeat IPC: 1.89699 cumulative IPC: 1.6251 (Simulation time: 2 hr 23 min 11 sec) 
Heartbeat CPU 0 instructions: 1580000004 cycles: 789020906 heartbeat IPC: 1.8289 cumulative IPC: 1.62677 (Simulation time: 2 hr 23 min 58 sec) 
Heartbeat CPU 0 instructions: 1590000003 cycles: 796504007 heartbeat IPC: 1.33634 cumulative IPC: 1.62354 (Simulation time: 2 hr 24 min 45 sec) 
Heartbeat CPU 0 instructions: 1600000002 cycles: 808803900 heartbeat IPC: 0.813015 cumulative IPC: 1.60896 (Simulation time: 2 hr 25 min 37 sec) 
Heartbeat CPU 0 instructions: 1610000001 cycles: 818707112 heartbeat IPC: 1.00977 cumulative IPC: 1.6004 (Simulation time: 2 hr 26 min 30 sec) 
Heartbeat CPU 0 instructions: 1620000001 cycles: 836053695 heartbeat IPC: 0.576482 cumulative IPC: 1.57542 (Simulation time: 2 hr 27 min 32 sec) 
Heartbeat CPU 0 instructions: 1630000002 cycles: 850164035 heartbeat IPC: 0.7087 cumulative IPC: 1.55855 (Simulation time: 2 hr 28 min 24 sec) 
Heartbeat CPU 0 instructions: 1640000000 cycles: 859199975 heartbeat IPC: 1.10669 cumulative IPC: 1.55299 (Simulation time: 2 hr 29 min 16 sec) 
Heartbeat CPU 0 instructions: 1650000003 cycles: 864634881 heartbeat IPC: 1.83996 cumulative IPC: 1.5551 (Simulation time: 2 hr 29 min 59 sec) 
Heartbeat CPU 0 instructions: 1660000000 cycles: 869795623 heartbeat IPC: 1.93771 cumulative IPC: 1.55775 (Simulation time: 2 hr 30 min 42 sec) 
Heartbeat CPU 0 instructions: 1670000000 cycles: 875095964 heartbeat IPC: 1.88667 cumulative IPC: 1.56007 (Simulation time: 2 hr 31 min 29 sec) 
Heartbeat CPU 0 instructions: 1680000002 cycles: 880407981 heartbeat IPC: 1.88252 cumulative IPC: 1.56234 (Simulation time: 2 hr 32 min 14 sec) 
Heartbeat CPU 0 instructions: 1690000003 cycles: 885721587 heartbeat IPC: 1.88196 cumulative IPC: 1.56457 (Simulation time: 2 hr 32 min 59 sec) 
Heartbeat CPU 0 instructions: 1700000004 cycles: 890782848 heartbeat IPC: 1.97579 cumulative IPC: 1.56729 (Simulation time: 2 hr 34 min 15 sec) 
Heartbeat CPU 0 instructions: 1710000002 cycles: 895823952 heartbeat IPC: 1.98369 cumulative IPC: 1.57001 (Simulation time: 2 hr 35 min 6 sec) 
Heartbeat CPU 0 instructions: 1720000002 cycles: 901195521 heartbeat IPC: 1.86165 cumulative IPC: 1.57203 (Simulation time: 2 hr 35 min 51 sec) 
Heartbeat CPU 0 instructions: 1730000001 cycles: 906617937 heartbeat IPC: 1.8442 cumulative IPC: 1.57392 (Simulation time: 2 hr 36 min 36 sec) 
Heartbeat CPU 0 instructions: 1740000003 cycles: 911934147 heartbeat IPC: 1.88104 cumulative IPC: 1.576 (Simulation time: 2 hr 37 min 24 sec) 
Heartbeat CPU 0 instructions: 1750000001 cycles: 917416618 heartbeat IPC: 1.82399 cumulative IPC: 1.57771 (Simulation time: 2 hr 38 min 4 sec) 
Heartbeat CPU 0 instructions: 1760000004 cycles: 922775966 heartbeat IPC: 1.8659 cumulative IPC: 1.57965 (Simulation time: 2 hr 38 min 48 sec) 
Heartbeat CPU 0 instructions: 1770000003 cycles: 928267303 heartbeat IPC: 1.82105 cumulative IPC: 1.5813 (Simulation time: 2 hr 39 min 34 sec) 
Heartbeat CPU 0 instructions: 1780000000 cycles: 933553239 heartbeat IPC: 1.89181 cumulative IPC: 1.58333 (Simulation time: 2 hr 40 min 21 sec) 
Heartbeat CPU 0 instructions: 1790000004 cycles: 938763239 heartbeat IPC: 1.91939 cumulative IPC: 1.58548 (Simulation time: 2 hr 41 min 10 sec) 
Heartbeat CPU 0 instructions: 1800000000 cycles: 943774555 heartbeat IPC: 1.99548 cumulative IPC: 1.58799 (Simulation time: 2 hr 41 min 56 sec) 
Heartbeat CPU 0 instructions: 1810000004 cycles: 949114348 heartbeat IPC: 1.87273 cumulative IPC: 1.58984 (Simulation time: 2 hr 42 min 40 sec) 
Heartbeat CPU 0 instructions: 1820000000 cycles: 954290263 heartbeat IPC: 1.93202 cumulative IPC: 1.59197 (Simulation time: 2 hr 43 min 42 sec) 
Heartbeat CPU 0 instructions: 1830000002 cycles: 959595956 heartbeat IPC: 1.88477 cumulative IPC: 1.59383 (Simulation time: 2 hr 44 min 32 sec) 
Heartbeat CPU 0 instructions: 1840000004 cycles: 964848327 heartbeat IPC: 1.9039 cumulative IPC: 1.59577 (Simulation time: 2 hr 45 min 17 sec) 
Heartbeat CPU 0 instructions: 1850000003 cycles: 970164582 heartbeat IPC: 1.88102 cumulative IPC: 1.59757 (Simulation time: 2 hr 46 min 2 sec) 
Heartbeat CPU 0 instructions: 1860000000 cycles: 975540650 heartbeat IPC: 1.86009 cumulative IPC: 1.59923 (Simulation time: 2 hr 47 min 7 sec) 
Heartbeat CPU 0 instructions: 1870000002 cycles: 980836550 heartbeat IPC: 1.88825 cumulative IPC: 1.60102 (Simulation time: 2 hr 47 min 56 sec) 
Heartbeat CPU 0 instructions: 1880000004 cycles: 985866844 heartbeat IPC: 1.98796 cumulative IPC: 1.60328 (Simulation time: 2 hr 49 min 7 sec) 
Heartbeat CPU 0 instructions: 1890000000 cycles: 991324866 heartbeat IPC: 1.83216 cumulative IPC: 1.60472 (Simulation time: 2 hr 49 min 50 sec) 
Heartbeat CPU 0 instructions: 1900000003 cycles: 996832648 heartbeat IPC: 1.81561 cumulative IPC: 1.60605 (Simulation time: 2 hr 50 min 34 sec) 
Heartbeat CPU 0 instructions: 1910000000 cycles: 1004752349 heartbeat IPC: 1.26267 cumulative IPC: 1.60296 (Simulation time: 2 hr 51 min 18 sec) 
Heartbeat CPU 0 instructions: 1920000001 cycles: 1017666865 heartbeat IPC: 0.774323 cumulative IPC: 1.59097 (Simulation time: 2 hr 52 min 9 sec) 
Heartbeat CPU 0 instructions: 1930000001 cycles: 1029442801 heartbeat IPC: 0.849189 cumulative IPC: 1.58131 (Simulation time: 2 hr 53 min 0 sec) 
Heartbeat CPU 0 instructions: 1940000003 cycles: 1034837055 heartbeat IPC: 1.85382 cumulative IPC: 1.58293 (Simulation time: 2 hr 53 min 43 sec) 
Heartbeat CPU 0 instructions: 1950000001 cycles: 1040057596 heartbeat IPC: 1.91551 cumulative IPC: 1.58483 (Simulation time: 2 hr 54 min 25 sec) 
Heartbeat CPU 0 instructions: 1960000004 cycles: 1045252328 heartbeat IPC: 1.92503 cumulative IPC: 1.58675 (Simulation time: 2 hr 55 min 12 sec) 
Heartbeat CPU 0 instructions: 1970000001 cycles: 1050643415 heartbeat IPC: 1.85491 cumulative IPC: 1.58831 (Simulation time: 2 hr 55 min 57 sec) 
Heartbeat CPU 0 instructions: 1980000002 cycles: 1055956417 heartbeat IPC: 1.88218 cumulative IPC: 1.58999 (Simulation time: 2 hr 56 min 41 sec) 
Heartbeat CPU 0 instructions: 1990000002 cycles: 1061099908 heartbeat IPC: 1.9442 cumulative IPC: 1.59193 (Simulation time: 2 hr 57 min 26 sec) 
*** Reached end of trace: traces/600.perlbench_s-1273B.champsimtrace.xz
Heartbeat CPU 0 instructions: 2000000004 cycles: 1066037937 heartbeat IPC: 2.0251 cumulative IPC: 1.59421 (Simulation time: 2 hr 58 min 6 sec) 
Finished CPU 0 instructions: 1500000002 cycles: 940907580 cumulative IPC: 1.59421 (Simulation time: 2 hr 58 min 6 sec) 

ChampSim completed all CPUs

Region of Interest Statistics

CPU 0 cumulative IPC: 1.59421 instructions: 1500000002 cycles: 940907580
cpu0_DTLB TOTAL     ACCESS:  276396232  HIT:  275192166  MISS:    1204066
cpu0_DTLB LOAD      ACCESS:  153006831  HIT:  151933492  MISS:    1073339
cpu0_DTLB RFO       ACCESS:  123389401  HIT:  123258674  MISS:     130727
cpu0_DTLB PREFETCH  ACCESS:          0  HIT:          0  MISS:          0
cpu0_DTLB WRITEBACK ACCESS:          0  HIT:          0  MISS:          0
cpu0_DTLB TRANSLATION ACCESS:          0  HIT:          0  MISS:          0
cpu0_DTLB PREFETCH  REQUESTED:          0  ISSUED:          0  USEFUL:          0  USELESS:          0
cpu0_DTLB AVERAGE MISS LATENCY: 9.53394 cycles
cpu0_ITLB TOTAL     ACCESS:  104502155  HIT:  104363094  MISS:     139061
cpu0_ITLB LOAD      ACCESS:  104502155  HIT:  104363094  MISS:     139061
cpu0_ITLB RFO       ACCESS:          0  HIT:          0  MISS:          0
cpu0_ITLB PREFETCH  ACCESS:          0  HIT:          0  MISS:          0
cpu0_ITLB WRITEBACK ACCESS:          0  HIT:          0  MISS:          0
cpu0_ITLB TRANSLATION ACCESS:          0  HIT:          0  MISS:          0
cpu0_ITLB PREFETCH  REQUESTED:          0  ISSUED:          0  USEFUL:          0  USELESS:          0
cpu0_ITLB AVERAGE MISS LATENCY: 9.24414 cycles
cpu0_L1I TOTAL     ACCESS:   91495580  HIT:   89556412  MISS:    1939168
cpu0_L1I LOAD      ACCESS:   91495580  HIT:   89556412  MISS:    1939168
cpu0_L1I RFO       ACCESS:          0  HIT:          0  MISS:          0
cpu0_L1I PREFETCH  ACCESS:          0  HIT:          0  MISS:          0
cpu0_L1I WRITEBACK ACCESS:          0  HIT:          0  MISS:          0
cpu0_L1I TRANSLATION ACCESS:          0  HIT:          0  MISS:          0
cpu0_L1I PREFETCH  REQUESTED:          0  ISSUED:          0  USEFUL:          0  USELESS:          0
cpu0_L1I AVERAGE MISS LATENCY: 14.4962 cycles
cpu0_STLB TOTAL     ACCESS:    1343127  HIT:    1285450  MISS:      57677
cpu0_STLB LOAD      ACCESS:    1212400  HIT:    1162590  MISS:      49810
cpu0_STLB RFO       ACCESS:     130727  HIT:     122860  MISS:       7867
cpu0_STLB PREFETCH  ACCESS:          0  HIT:          0  MISS:          0
cpu0_STLB WRITEBACK ACCESS:          0  HIT:          0  MISS:          0
cpu0_STLB TRANSLATION ACCESS:          0  HIT:          0  MISS:          0
cpu0_STLB PREFETCH  REQUESTED:          0  ISSUED:          0  USEFUL:          0  USELESS:          0
cpu0_STLB AVERAGE MISS LATENCY: 11.3699 cycles
cpu0_L1D TOTAL     ACCESS:  495599025  HIT:  494240815  MISS:    1358210
cpu0_L1D LOAD      ACCESS:  181329939  HIT:  180099979  MISS:    1229960
cpu0_L1D RFO       ACCESS:  314211734  HIT:  314090010  MISS:     121724
cpu0_L1D PREFETCH  ACCESS:          0  HIT:          0  MISS:          0
cpu0_L1D WRITEBACK ACCESS:          0  HIT:          0  MISS:          0
cpu0_L1D TRANSLATION ACCESS:      57352  HIT:      50826  MISS:       6526
cpu0_L1D PREFETCH  REQUESTED:          0  ISSUED:          0  USEFUL:          0  USELESS:          0
cpu0_L1D AVERAGE MISS LATENCY: 77.529 cycles
cpu0_L2C TOTAL     ACCESS:    3654276  HIT:    2956260  MISS:     698016
cpu0_L2C LOAD      ACCESS:    3169098  HIT:    2512824  MISS:     656274
cpu0_L2C RFO       ACCESS:     121720  HIT:      82305  MISS:      39415
cpu0_L2C PREFETCH  ACCESS:          0  HIT:          0  MISS:          0
cpu0_L2C WRITEBACK ACCESS:     356932  HIT:     354963  MISS:       1969
cpu0_L2C TRANSLATION ACCESS:       6526  HIT:       6168  MISS:        358
cpu0_L2C PREFETCH  REQUESTED:          0  ISSUED:          0  USEFUL:          0  USELESS:          0
cpu0_L2C AVERAGE MISS LATENCY: 139.095 cycles
LLC TOTAL     ACCESS:     829890  HIT:     300784  MISS:     529106
LLC LOAD      ACCESS:     656273  HIT:     154944  MISS:     501329
LLC RFO       ACCESS:      39415  HIT:      13098  MISS:      26317
LLC PREFETCH  ACCESS:          0  HIT:          0  MISS:          0
LLC WRITEBACK ACCESS:     133844  HIT:     132488  MISS:       1356
LLC TRANSLATION ACCESS:        358  HIT:        254  MISS:        104
LLC PREFETCH  REQUESTED:          0  ISSUED:          0  USEFUL:          0  USELESS:          0
LLC AVERAGE MISS LATENCY: 155.873 cycles
~~~~~~~~~~Reuse Distance Profiler output~~~~~~~~~~
0	106863504	5402448
1	44822400	6470080
2	31623056	10272784
3	25494160	8960928
4	22342384	5580288
5	15562192	3872480
6	20117296	5411904
7	20139168	3799072
8	20262368	4285648
9	19041216	4519344
10	11918160	3819664
11	16312560	5622624
12	11838160	4068544
13	9156864	3246544
14	7669872	1895184
15	6948272	2203376
16	8150640	3865440
17	6344032	2518496
18	6095056	1817024
19	5750272	2542032
20	8620912	2781872
21	5754416	2556864
22	5323120	1903456
23	6724960	2523760
24	4457024	1701232
25	3817648	1346272
26	3298288	1254624
27	3964160	1483200
28	3334992	1304160
29	3017504	883808
30	2353136	1101888
31	4252016	1708944
32	2668032	1093104
33	3858192	1194624
34	2750960	935136
35	1831872	905504
36	2330192	1569312
37	1928272	868592
38	2277056	800272
39	1630816	857216
40	1206912	797328
41	1212528	685536
42	2093696	940144
43	1367952	905168
44	2848560	1325808
45	1527008	908880
46	1931312	1105440
47	2482256	1164784
48	1977296	1312864
49	2018240	1409536
50	2285872	1487488
51	1826096	1042896
52	1131136	655312
53	1550480	572016
54	1492992	972224
55	1029376	662752
56	1350832	591136
57	1398432	599600
58	2290176	828592
59	3003744	1728016
60	1811024	976656
61	1732704	1228144
62	2462240	835424
63	1877904	783984
64	3913136	2119648
66	3333184	2269280
68	2690240	1680672
70	2910272	1493232
72	1607600	754736
74	2034304	1125856
76	1253280	712608
78	1194768	542848
80	1401440	980464
82	2368736	1941184
84	1542560	1056864
86	1145520	638400
88	1795232	853024
90	1530304	1176256
92	1874720	1624016
94	2343568	1469264
96	1727152	1261440
98	1281616	894128
100	1837984	1351008
102	970176	470096
104	1353360	1088544
106	1350432	838336
108	1605328	1339312
110	778464	610352
112	727760	510976
114	602000	488368
116	1393696	1260320
118	739168	579328
120	956128	699520
122	600416	449504
124	593904	462784
126	568544	436464
128	2460640	1412896
132	1969808	1414400
136	1589248	1091584
140	3681248	2868832
144	5376000	4788016
148	3216000	2413856
152	3537824	3269936
156	2042128	1930768
160	1205216	1029504
164	1019760	832544
168	2219136	1666112
172	1384464	1123728
176	2284704	1826736
180	2056016	1749472
184	1084496	910528
188	813776	714608
192	647872	534160
196	509984	425712
200	544208	429280
204	395120	343984
208	403280	330336
212	402768	358160
216	337840	283696
220	401840	355488
224	274096	220848
228	358304	296000
232	698896	627968
236	416208	320304
240	506560	422144
244	604512	534384
248	407968	350800
252	381984	342704
256	668000	613328
264	967392	866400
272	702752	633472
280	2051216	1808256
288	724608	677696
296	1439936	1341296
304	671312	604528
312	563728	498160
320	456080	381664
328	614416	516448
336	626736	525712
344	731008	617168
352	881632	776464
360	666944	582432
368	507312	445696
376	646176	557904
384	676880	591152
392	356800	312864
400	238496	199792
408	229184	196016
416	238928	205312
424	223072	182832
432	244288	203056
440	196992	155152
448	181104	159360
456	181248	161040
464	191600	170608
472	134288	118416
480	105904	94432
488	77504	68224
496	92384	79952
504	86800	75536
512	158896	142368
528	236400	215456
544	209920	182112
560	281232	252144
576	363504	322288
592	307200	286816
608	168400	152896
624	299248	265072
640	132160	113504
656	93328	83312
672	154736	135904
688	110736	98896
704	100864	90544
720	108544	96960
736	95952	85200
752	87408	79824
768	79072	70816
784	95264	81776
800	74160	63072
816	75152	68432
832	72896	65760
848	66576	59520
864	69552	61552
880	83456	73120
896	65712	58128
912	56448	48240
928	57520	49216
944	48800	41488
960	62240	52064
976	61968	55376
992	52144	45360
1008	49872	44432
1024	96144	86432
1056	108256	98880
1088	97600	86448
1120	86640	78304
1152	86576	76192
1184	88032	75616
1216	76224	61824
1248	77504	63408
1280	75872	65056
1312	71392	61648
1344	76032	58176
1376	96016	77088
1408	91280	81632
1440	68352	58896
1472	62032	54256
1504	63840	53920
1536	55168	46624
1568	49872	43456
1600	41376	36160
1632	38736	34512
1664	41664	36912
1696	45744	41232
1728	39232	34672
1760	39872	34160
1792	45936	39808
1824	38752	34160
1856	34512	30768
1888	30272	27568
1920	34336	30400
1952	32240	28032
1984	33456	29536
2016	29680	26496
2048	80704	65632
2112	63584	57536
2176	53776	49072
2240	58208	52896
2304	59824	53056
2368	65248	58176
2432	55008	50128
2496	53728	47536
2560	53600	48240
2624	56384	49168
2688	49600	43904
2752	50480	45776
2816	51040	46368
2880	43888	39120
2944	50048	44336
3008	41376	36896
3072	39792	35360
3136	39536	35152
3200	42736	38016
3264	40848	37056
3328	32480	29824
3392	27536	24816
3456	26000	23520
3520	26640	23696
3584	24384	21856
3648	21184	18912
3712	21440	19360
3776	21968	19360
3840	23920	21184
3904	26560	24000
3968	20992	18768
4032	20752	18832
4096	42912	38640
4224	41280	37296
4352	47952	44384
4480	35200	31104
4608	37376	33456
4736	36176	32960
4864	34000	30736
4992	32320	28752
5120	30384	27248
5248	29664	26784
5376	27696	25328
5504	26096	23760
5632	31808	29664
5760	28320	25504
5888	23776	21664
6016	20720	19040
6144	22784	20608
6272	19680	18144
6400	20528	18160
6528	23104	21248
6656	19296	17904
6784	19584	17792
6912	18176	16832
7040	20096	17424
7168	20976	19264
7296	17776	16000
7424	20800	19472
7552	22432	20528
7680	16912	14832
7808	16608	15008
7936	21152	19472
8064	20960	19328
8192	32240	28784
8448	27200	25088
8704	40864	38032
8960	32432	29664
9216	30800	27888
9472	23968	21664
9728	29728	27232
9984	22672	20432
10240	21248	19392
10496	24592	22560
10752	20592	18528
11008	20928	18480
11264	17008	15248
11520	18416	16896
11776	18304	16672
12032	14560	12944
12288	14368	12944
12544	15360	13776
12800	16912	15104
13056	18320	16448
13312	19168	17600
13568	16704	14912
13824	15488	13808
14080	17984	16592
14336	18128	16704
14592	12992	11696
14848	16832	15488
15104	14400	13232
15360	14880	13536
15616	14928	13712
15872	15680	14464
16128	15504	13888
16384	26128	23856
16896	23168	20800
17408	23680	21712
17920	21536	19280
18432	23008	21232
18944	19088	17264
19456	21152	19536
19968	18480	16832
20480	17168	15264
20992	15872	14016
21504	18608	16816
22016	22320	20512
22528	26144	24512
23040	23632	22064
23552	15920	14384
24064	14048	12640
24576	11808	10272
25088	11760	10144
25600	11488	9904
26112	15824	14224
26624	11632	10224
27136	13472	12336
27648	9936	8848
28160	14080	12880
28672	11152	10192
29184	13712	12544
29696	16352	15152
30208	13744	12896
30720	8416	7856
31232	10656	9856
31744	10176	9520
32256	10512	9584
32768	15632	14592
33792	14384	13104
34816	13200	12048
35840	14832	13712
36864	13600	12128
37888	17040	15376
38912	14224	12496
39936	13040	11376
40960	8144	7136
41984	8512	7296
43008	10992	9680
44032	12096	10432
45056	12992	11296
46080	14976	13120
47104	15936	13792
48128	12336	10832
49152	16080	12000
50176	12800	10256
51200	12160	10048
52224	16096	12448
53248	15648	11808
54272	11056	9136
55296	8496	7200
56320	8256	6928
57344	8496	7424
58368	8624	8032
59392	10256	9392
60416	6880	6032
61440	4400	3904
62464	5568	4688
63488	4576	4112
64512	5296	4832
65536	9664	8880
67584	8048	7232
69632	12112	11360
71680	8768	8032
73728	16352	15136
75776	14128	12752
77824	12192	11664
79872	10256	9040
81920	21376	20112
83968	10016	9248
86016	7840	7104
88064	7184	6288
90112	7536	6880
92160	11312	10352
94208	22496	20560
96256	24784	23024
98304	13440	12560
100352	12176	10960
102400	14464	13072
104448	19712	18528
106496	7024	6544
108544	10144	9392
110592	9392	8976
112640	7776	7216
114688	9648	8784
116736	9616	8896
118784	6672	6224
120832	7296	6624
122880	5904	5360
124928	6272	5808
126976	4096	3856
129024	4528	4128
131072	6672	6112
135168	6320	5872
139264	7184	6848
143360	6624	6016
147456	7152	6640
151552	6544	5744
155648	8000	7600
159744	5680	5216
163840	8816	8272
167936	4144	3856
172032	5280	4928
176128	4560	4208
180224	6800	6336
184320	10624	10032
188416	4432	4128
192512	5200	4720
196608	4176	3776
200704	4016	3776
204800	5936	5424
208896	5792	5248
212992	4288	3568
217088	4032	3680
221184	5344	5088
225280	6240	5888
229376	3024	2576
233472	3216	2896
237568	3392	3216
241664	3568	3424
245760	3280	3136
249856	4192	3904
253952	3072	2944
258048	3216	3008
262144	6192	5744
270336	6912	6288
278528	20288	19184
286720	17616	16160
294912	5312	5056
303104	5008	4624
311296	4960	4784
319488	4592	4320
327680	4800	4496
335872	7920	7488
344064	10480	9936
352256	9152	8192
360448	4016	3840
368640	3216	2720
376832	3392	3104
385024	2608	2432
393216	2960	2768
401408	2304	2144
409600	3040	2736
417792	3216	2960
425984	2128	2016
434176	2848	2576
442368	3984	3712
450560	2448	2288
458752	2288	2128
466944	2416	2176
475136	2304	1984
483328	2208	2032
491520	1952	1776
499712	2496	2304
507904	2048	1840
516096	4880	4624
524288	14720	14032
540672	4784	4512
557056	5616	5184
573440	6672	6224
589824	5248	4944
606208	4032	3792
622592	4768	4432
638976	4864	4624
655360	2960	2640
671744	2784	2496
688128	2176	2048
704512	1472	1392
720896	2768	2560
737280	2592	2240
753664	2224	2064
770048	2432	2240
786432	2304	1888
802816	2160	1744
819200	1136	960
835584	2208	1920
851968	1456	1344
868352	1680	1568
884736	1968	1824
901120	1440	1280
917504	2336	2112
933888	2432	2304
950272	944	768
966656	960	896
983040	1440	1264
999424	992	944
1015808	864	752
1032192	1504	1312
1048576	2768	2464
1081344	2704	2480
1114112	2720	2256
1146880	2096	1856
1179648	2992	2560
1212416	2112	1920
1245184	2176	2096
1277952	1504	1344
1310720	2032	1888
1343488	2016	1760
1376256	1760	1552
1409024	1568	1264
1441792	1264	1104
1474560	1600	1472
1507328	1456	1328
1540096	1936	1632
1572864	1888	1712
1605632	4320	3232
1638400	2080	1696
1671168	1328	1280
1703936	1472	1216
1736704	1824	1568
1769472	1296	1232
1802240	976	896
1835008	1104	976
1867776	1216	1104
1900544	2000	1904
1933312	2464	2304
1966080	4768	4288
1998848	1488	1376
2031616	976	880
2064384	1184	1056
2097152	2336	2144
2162688	2256	2032
2228224	1840	1648
2293760	1232	960
2359296	2848	2624
2424832	2144	1984
2490368	1328	1200
2555904	1104	1072
2621440	1168	928
2686976	2048	1696
2752512	1296	1104
2818048	1088	992
2883584	1376	1200
2949120	608	544
3014656	1056	944
3080192	800	688
3145728	1488	1184
3211264	1840	1632
3276800	1680	1616
3342336	1488	1280
3407872	1392	1248
3473408	1488	1408
3538944	1136	864
3604480	1280	1024
3670016	736	656
3735552	624	464
3801088	960	784
3866624	704	624
3932160	816	768
3997696	544	528
4063232	464	416
4128768	496	320
4194304	1360	1312
4325376	1984	1840
4456448	640	416
4587520	1056	816
4718592	1088	880
4849664	864	832
4980736	912	832
5111808	800	720
5242880	464	464
5373952	880	768
5505024	1824	1760
5636096	1728	1632
5767168	896	720
5898240	3632	3504
6029312	10352	10176
6160384	1504	1424
6291456	960	848
6422528	400	384
6553600	496	400
6684672	304	240
6815744	496	480
6946816	304	272
7077888	112	96
7208960	192	128
7340032	304	288
7471104	256	208
7602176	656	496
7733248	416	416
7864320	320	288
7995392	480	464
8126464	304	304
8257536	1120	1072
8388608	10368	10096
8650752	1680	1584
8912896	1088	960
9175040	2144	2096
9437184	2032	1984
9699328	272	272
9961472	224	208
10223616	480	464
10485760	272	272
10747904	592	576
11010048	800	768
11272192	576	576
11534336	304	288
11796480	224	224
12058624	512	512
12320768	528	464
12582912	656	608
12845056	672	592
13107200	368	336
13369344	576	544
13631488	896	832
13893632	656	608
14155776	688	672
14417920	544	416
14680064	352	304
14942208	368	320
15204352	912	832
15466496	160	128
15728640	736	688
15990784	1104	928
16252928	1136	960
16515072	1792	1712
16777216	5936	5440
17301504	16528	16064
17825792	3616	3456
18350080	4256	3872
18874368	4512	4112
19398656	7904	7776
19922944	4688	4544
20447232	1520	1456
20971520	2128	1984
21495808	10832	10416
22020096	9936	9616
22544384	16736	16240
23068672	2160	1936
23592960	944	816
24117248	1200	1152
24641536	1696	1648
25165824	2064	2032
25690112	1264	1152
26214400	1440	1392
26738688	1376	1360
27262976	944	912
27787264	1536	1504
28311552	1600	1568
28835840	848	784
29360128	672	640
29884416	752	736
30408704	1536	1488
30932992	1232	1200
31457280	1712	1648
31981568	928	912
32505856	1056	1040
33030144	1296	1296
33554432	2064	2000
34603008	2176	2080
35651584	3024	2912
36700160	2928	2864
37748736	2544	2496
38797312	3600	3456
39845888	2560	2480
40894464	3088	2896
41943040	2368	2240
42991616	3728	3472
44040192	3808	3584
45088768	21744	20832
46137344	15936	15392
47185920	8384	8192
48234496	1760	1616
49283072	2480	2368
50331648	2416	2352
51380224	1392	1344
52428800	2224	2208
53477376	2512	2432
54525952	1840	1712
55574528	1712	1664
56623104	2000	1904
57671680	2480	2448
58720256	3088	2864
59768832	4208	3920
60817408	2848	2672
61865984	2752	2528
62914560	3584	3296
63963136	2640	2400
65011712	3808	3552
66060288	37520	36432
67108864	3024	2768
69206016	2992	2624
71303168	3152	3024
73400320	1104	1088
75497472	3056	2976
77594624	2272	2144
79691776	2448	2320
81788928	1936	1888
83886080	1984	1856
85983232	1792	1648
88080384	5584	5440
90177536	4656	4400
92274688	8896	7296
94371840	22624	21504
96468992	44448	42896
98566144	15680	15120
100663296	1200	1024
102760448	3920	3648
104857600	1808	1696
106954752	1104	1056
109051904	784	784
111149056	880	864
113246208	1392	1392
115343360	688	688
117440512	512	496
119537664	1360	1360
121634816	1328	1296
123731968	864	832
125829120	672	672
127926272	1488	1456
130023424	752	704
132120576	704	656
134217728	1952	1824
138412032	1888	1744
142606336	2016	1792
146800640	2928	2768
150994944	1808	1744
155189248	1328	1232
159383552	1872	1776
163577856	4640	4352
167772160	9328	5936
171966464	39200	37584
176160768	224	160
180355072	48	48
184549376	48	32
188743680	224	80
192937984	1120	496
197132288	80	16
201326592	0	0
205520896	16	16
209715200	0	0
213909504	0	0
218103808	0	0
222298112	0	0
226492416	0	0
230686720	320	304
234881024	16	0
239075328	48	0
243269632	0	0
247463936	16	16
251658240	0	0
255852544	0	0
260046848	16	0
264241152	48	16
268435456	2080	1760
276824064	0	0
285212672	2768	2656
293601280	32	0
301989888	96	0
310378496	528	336
318767104	2624	2496
327155712	0	0
335544320	656	608
343932928	0	0
352321536	48	16
360710144	0	0
369098752	0	0
377487360	48	48
385875968	16	16
394264576	16	16
402653184	16	16
411041792	32	32
419430400	48	32
427819008	64	64
436207616	0	0
444596224	0	0
452984832	0	0
461373440	0	0
469762048	0	0
478150656	0	0
486539264	0	0
494927872	0	0
503316480	0	0
511705088	0	0
520093696	0	0
528482304	16	16
536870912	16	16
553648128	0	0
570425344	0	0
587202560	0	0
603979776	0	0
620756992	0	0
637534208	0	0
654311424	0	0
671088640	0	0
687865856	0	0
704643072	0	0
721420288	0	0
738197504	0	0
754974720	0	0
771751936	0	0
788529152	0	0
805306368	0	0
822083584	0	0
838860800	0	0
855638016	0	0
872415232	0	0
889192448	0	0
905969664	0	0
922746880	0	0
939524096	0	0
956301312	0	0
973078528	0	0
989855744	0	0
1006632960	0	0
1023410176	0	0
1040187392	0	0
1056964608	0	0
1073741824	0	0
1107296256	0	0
1140850688	0	0
1174405120	0	0
1207959552	0	0
1241513984	0	0
1275068416	0	0
1308622848	0	0
1342177280	0	0
1375731712	0	0
1409286144	0	0
1442840576	0	0
1476395008	0	0
1509949440	0	0
1543503872	0	0
1577058304	0	0
1610612736	0	0
1644167168	0	0
1677721600	0	0
1711276032	0	0
1744830464	0	0
1778384896	0	0
1811939328	0	0
1845493760	0	0
1879048192	0	0
1912602624	0	0
1946157056	0	0
1979711488	0	0
2013265920	0	0
2046820352	0	0
2080374784	0	0
2113929216	0	0
2147483648	0	0
2214592512	0	0
2281701376	0	0
2348810240	0	0
2415919104	0	0
2483027968	0	0
2550136832	0	0
2617245696	0	0
2684354560	0	0
2751463424	0	0
2818572288	0	0
2885681152	0	0
2952790016	0	0
3019898880	0	0
3087007744	0	0
3154116608	0	0
3221225472	0	0
3288334336	0	0
3355443200	0	0
3422552064	0	0
3489660928	0	0
3556769792	0	0
3623878656	0	0
3690987520	0	0
3758096384	0	0
3825205248	0	0
3892314112	0	0
3959422976	0	0
4026531840	0	0
4093640704	0	0
4160749568	0	0
4227858432	0	0
~~~~~~~~~~Reuse Distance Profiler output end~~~~~~~~~~

DRAM Statistics
 CHANNEL 0
 RQ ROW_BUFFER_HIT:      55229  ROW_BUFFER_MISS:     472517
 DBUS AVG_CONGESTED_CYCLE:    3.84628
 WQ ROW_BUFFER_HIT:      58786  ROW_BUFFER_MISS:      34932  FULL:          0


CPU 0 Branch Prediction Accuracy: 96.7674% MPKI: 4.74964 Average ROB Occupancy at Mispredict: 107.344
Branch type MPKI
BRANCH_DIRECT_JUMP: 0.000997333
BRANCH_INDIRECT: 0.287847
BRANCH_CONDITIONAL: 4.33089
BRANCH_DIRECT_CALL: 0.001064
BRANCH_INDIRECT_CALL: 0.124815
BRANCH_RETURN: 0.00403667

