
*** ChampSim Multicore Out-of-Order Simulator ***

Warmup Instructions: 500000000
Simulation Instructions: 1500000000
Number of CPUs: 1
Off-chip DRAM Size: 4 GiB Channels: 1 Width: 64-bit Data Rate: 3200 MT/s

VirtualMemory physical capacity: 8588881920 num_ppages: 2096895
VirtualMemory page size: 4096 log2_page_size: 12

CPU 0 runs traces/600.perlbench_s-570B.champsimtrace.xz
CPU 0 Bimodal branch predictor
Basic BTB sets: 1024 ways: 8 indirect buffer size: 4096 RAS size: 64
Initializing LRU.
Initializing LRU.
Initializing LRU.
Initializing LRU.
Initializing rdLRU.
Initializing LRU.
Initializing LRU.
Heartbeat CPU 0 instructions: 10000001 cycles: 2509957 heartbeat IPC: 3.98413 cumulative IPC: 3.98413 (Simulation time: 0 hr 0 min 40 sec) 
Heartbeat CPU 0 instructions: 20000001 cycles: 5010285 heartbeat IPC: 3.99948 cumulative IPC: 3.99179 (Simulation time: 0 hr 1 min 39 sec) 
Heartbeat CPU 0 instructions: 30000002 cycles: 7510703 heartbeat IPC: 3.99933 cumulative IPC: 3.9943 (Simulation time: 0 hr 2 min 34 sec) 
Heartbeat CPU 0 instructions: 40000003 cycles: 10010755 heartbeat IPC: 3.99992 cumulative IPC: 3.9957 (Simulation time: 0 hr 3 min 23 sec) 
Heartbeat CPU 0 instructions: 50000002 cycles: 12515714 heartbeat IPC: 3.99208 cumulative IPC: 3.99498 (Simulation time: 0 hr 4 min 2 sec) 
Heartbeat CPU 0 instructions: 60000002 cycles: 15015714 heartbeat IPC: 4 cumulative IPC: 3.99581 (Simulation time: 0 hr 4 min 39 sec) 
Heartbeat CPU 0 instructions: 70000003 cycles: 17523005 heartbeat IPC: 3.98837 cumulative IPC: 3.99475 (Simulation time: 0 hr 5 min 31 sec) 
Heartbeat CPU 0 instructions: 80000003 cycles: 20029978 heartbeat IPC: 3.98887 cumulative IPC: 3.99401 (Simulation time: 0 hr 6 min 29 sec) 
Heartbeat CPU 0 instructions: 90000000 cycles: 22537784 heartbeat IPC: 3.98755 cumulative IPC: 3.99329 (Simulation time: 0 hr 7 min 26 sec) 
Heartbeat CPU 0 instructions: 100000000 cycles: 25039129 heartbeat IPC: 3.99785 cumulative IPC: 3.99375 (Simulation time: 0 hr 8 min 10 sec) 
Heartbeat CPU 0 instructions: 110000000 cycles: 27539734 heartbeat IPC: 3.99903 cumulative IPC: 3.99423 (Simulation time: 0 hr 8 min 45 sec) 
Heartbeat CPU 0 instructions: 120000002 cycles: 30039995 heartbeat IPC: 3.99958 cumulative IPC: 3.99467 (Simulation time: 0 hr 9 min 23 sec) 
Heartbeat CPU 0 instructions: 130000004 cycles: 32541782 heartbeat IPC: 3.99714 cumulative IPC: 3.99486 (Simulation time: 0 hr 10 min 22 sec) 
Heartbeat CPU 0 instructions: 140000002 cycles: 35047513 heartbeat IPC: 3.99085 cumulative IPC: 3.99458 (Simulation time: 0 hr 11 min 14 sec) 
Heartbeat CPU 0 instructions: 150000001 cycles: 37551420 heartbeat IPC: 3.99376 cumulative IPC: 3.99452 (Simulation time: 0 hr 12 min 11 sec) 
Heartbeat CPU 0 instructions: 160000000 cycles: 40057612 heartbeat IPC: 3.99012 cumulative IPC: 3.99425 (Simulation time: 0 hr 13 min 7 sec) 
Heartbeat CPU 0 instructions: 170000001 cycles: 42557848 heartbeat IPC: 3.99962 cumulative IPC: 3.99456 (Simulation time: 0 hr 13 min 44 sec) 
Heartbeat CPU 0 instructions: 180000000 cycles: 45059842 heartbeat IPC: 3.99681 cumulative IPC: 3.99469 (Simulation time: 0 hr 14 min 25 sec) 
Heartbeat CPU 0 instructions: 190000003 cycles: 47565849 heartbeat IPC: 3.99041 cumulative IPC: 3.99446 (Simulation time: 0 hr 15 min 19 sec) 
Heartbeat CPU 0 instructions: 200000002 cycles: 50070932 heartbeat IPC: 3.99188 cumulative IPC: 3.99433 (Simulation time: 0 hr 16 min 6 sec) 
Heartbeat CPU 0 instructions: 210000003 cycles: 52576484 heartbeat IPC: 3.99114 cumulative IPC: 3.99418 (Simulation time: 0 hr 16 min 49 sec) 
Heartbeat CPU 0 instructions: 220000001 cycles: 55077557 heartbeat IPC: 3.99828 cumulative IPC: 3.99437 (Simulation time: 0 hr 17 min 32 sec) 
Heartbeat CPU 0 instructions: 230000000 cycles: 57578263 heartbeat IPC: 3.99887 cumulative IPC: 3.99456 (Simulation time: 0 hr 18 min 15 sec) 
Heartbeat CPU 0 instructions: 240000000 cycles: 60078263 heartbeat IPC: 4 cumulative IPC: 3.99479 (Simulation time: 0 hr 18 min 55 sec) 
Heartbeat CPU 0 instructions: 250000000 cycles: 62578263 heartbeat IPC: 4 cumulative IPC: 3.995 (Simulation time: 0 hr 19 min 38 sec) 
Heartbeat CPU 0 instructions: 260000000 cycles: 65078263 heartbeat IPC: 4 cumulative IPC: 3.99519 (Simulation time: 0 hr 20 min 16 sec) 
Heartbeat CPU 0 instructions: 270000002 cycles: 67580358 heartbeat IPC: 3.99665 cumulative IPC: 3.99524 (Simulation time: 0 hr 20 min 52 sec) 
Heartbeat CPU 0 instructions: 280000002 cycles: 70080358 heartbeat IPC: 4 cumulative IPC: 3.99541 (Simulation time: 0 hr 21 min 40 sec) 
Heartbeat CPU 0 instructions: 290000000 cycles: 72582037 heartbeat IPC: 3.99731 cumulative IPC: 3.99548 (Simulation time: 0 hr 22 min 22 sec) 
Heartbeat CPU 0 instructions: 300000003 cycles: 75087586 heartbeat IPC: 3.99114 cumulative IPC: 3.99533 (Simulation time: 0 hr 23 min 4 sec) 
Heartbeat CPU 0 instructions: 310000000 cycles: 77592879 heartbeat IPC: 3.99155 cumulative IPC: 3.99521 (Simulation time: 0 hr 23 min 40 sec) 
Heartbeat CPU 0 instructions: 320000002 cycles: 80098041 heartbeat IPC: 3.99176 cumulative IPC: 3.9951 (Simulation time: 0 hr 24 min 17 sec) 
Heartbeat CPU 0 instructions: 330000001 cycles: 82599464 heartbeat IPC: 3.99772 cumulative IPC: 3.99518 (Simulation time: 0 hr 24 min 53 sec) 
Heartbeat CPU 0 instructions: 340000003 cycles: 85099465 heartbeat IPC: 4 cumulative IPC: 3.99532 (Simulation time: 0 hr 25 min 38 sec) 
Heartbeat CPU 0 instructions: 350000000 cycles: 87599641 heartbeat IPC: 3.99972 cumulative IPC: 3.99545 (Simulation time: 0 hr 26 min 35 sec) 
Heartbeat CPU 0 instructions: 360000001 cycles: 90101432 heartbeat IPC: 3.99714 cumulative IPC: 3.9955 (Simulation time: 0 hr 27 min 35 sec) 
Heartbeat CPU 0 instructions: 370000002 cycles: 92606859 heartbeat IPC: 3.99134 cumulative IPC: 3.99538 (Simulation time: 0 hr 28 min 28 sec) 
Heartbeat CPU 0 instructions: 380000001 cycles: 95113761 heartbeat IPC: 3.98899 cumulative IPC: 3.99522 (Simulation time: 0 hr 29 min 15 sec) 
Heartbeat CPU 0 instructions: 390000003 cycles: 97620163 heartbeat IPC: 3.98978 cumulative IPC: 3.99508 (Simulation time: 0 hr 29 min 50 sec) 
Heartbeat CPU 0 instructions: 400000002 cycles: 100122498 heartbeat IPC: 3.99627 cumulative IPC: 3.99511 (Simulation time: 0 hr 30 min 26 sec) 
Heartbeat CPU 0 instructions: 410000003 cycles: 102625357 heartbeat IPC: 3.99543 cumulative IPC: 3.99511 (Simulation time: 0 hr 31 min 20 sec) 
Heartbeat CPU 0 instructions: 420000003 cycles: 105125357 heartbeat IPC: 4 cumulative IPC: 3.99523 (Simulation time: 0 hr 32 min 20 sec) 
Heartbeat CPU 0 instructions: 430000003 cycles: 107625357 heartbeat IPC: 4 cumulative IPC: 3.99534 (Simulation time: 0 hr 33 min 1 sec) 
Heartbeat CPU 0 instructions: 440000003 cycles: 110127412 heartbeat IPC: 3.99671 cumulative IPC: 3.99537 (Simulation time: 0 hr 33 min 39 sec) 
Heartbeat CPU 0 instructions: 450000003 cycles: 112627412 heartbeat IPC: 4 cumulative IPC: 3.99548 (Simulation time: 0 hr 34 min 34 sec) 
Heartbeat CPU 0 instructions: 460000003 cycles: 115127415 heartbeat IPC: 4 cumulative IPC: 3.99557 (Simulation time: 0 hr 35 min 15 sec) 
Heartbeat CPU 0 instructions: 470000003 cycles: 117627415 heartbeat IPC: 4 cumulative IPC: 3.99567 (Simulation time: 0 hr 36 min 10 sec) 
Heartbeat CPU 0 instructions: 480000002 cycles: 120127447 heartbeat IPC: 3.99995 cumulative IPC: 3.99576 (Simulation time: 0 hr 37 min 8 sec) 
Heartbeat CPU 0 instructions: 490000002 cycles: 122627447 heartbeat IPC: 4 cumulative IPC: 3.99584 (Simulation time: 0 hr 38 min 4 sec) 
Heartbeat CPU 0 instructions: 500000002 cycles: 125127447 heartbeat IPC: 4 cumulative IPC: 3.99593 (Simulation time: 0 hr 39 min 4 sec) 

Warmup complete CPU 0 instructions: 500000002 cycles: 125127447 (Simulation time: 0 hr 39 min 4 sec) 

Heartbeat CPU 0 instructions: 510000000 cycles: 130831100 heartbeat IPC: 1.75326 cumulative IPC: 1.75326 (Simulation time: 0 hr 40 min 24 sec) 
Heartbeat CPU 0 instructions: 520000000 cycles: 136591232 heartbeat IPC: 1.73607 cumulative IPC: 1.74462 (Simulation time: 0 hr 41 min 43 sec) 
Heartbeat CPU 0 instructions: 530000000 cycles: 142372518 heartbeat IPC: 1.72972 cumulative IPC: 1.73963 (Simulation time: 0 hr 42 min 38 sec) 
Heartbeat CPU 0 instructions: 540000001 cycles: 148008578 heartbeat IPC: 1.77429 cumulative IPC: 1.74817 (Simulation time: 0 hr 43 min 35 sec) 
Heartbeat CPU 0 instructions: 550000000 cycles: 153977893 heartbeat IPC: 1.67523 cumulative IPC: 1.73308 (Simulation time: 0 hr 44 min 42 sec) 
Heartbeat CPU 0 instructions: 560000001 cycles: 162609265 heartbeat IPC: 1.15856 cumulative IPC: 1.60078 (Simulation time: 0 hr 46 min 4 sec) 
Heartbeat CPU 0 instructions: 570000001 cycles: 175032814 heartbeat IPC: 0.804923 cumulative IPC: 1.40265 (Simulation time: 0 hr 47 min 25 sec) 
Heartbeat CPU 0 instructions: 580000001 cycles: 188304347 heartbeat IPC: 0.753492 cumulative IPC: 1.26629 (Simulation time: 0 hr 48 min 49 sec) 
Heartbeat CPU 0 instructions: 590000000 cycles: 194808877 heartbeat IPC: 1.53739 cumulative IPC: 1.29159 (Simulation time: 0 hr 50 min 9 sec) 
Heartbeat CPU 0 instructions: 600000001 cycles: 201539770 heartbeat IPC: 1.48569 cumulative IPC: 1.30869 (Simulation time: 0 hr 51 min 33 sec) 
Heartbeat CPU 0 instructions: 610000001 cycles: 212441620 heartbeat IPC: 0.917275 cumulative IPC: 1.25982 (Simulation time: 0 hr 52 min 55 sec) 
Heartbeat CPU 0 instructions: 620000000 cycles: 225081117 heartbeat IPC: 0.791171 cumulative IPC: 1.20056 (Simulation time: 0 hr 53 min 57 sec) 
Heartbeat CPU 0 instructions: 630000002 cycles: 238060703 heartbeat IPC: 0.770441 cumulative IPC: 1.15112 (Simulation time: 0 hr 54 min 50 sec) 
Heartbeat CPU 0 instructions: 640000002 cycles: 243865026 heartbeat IPC: 1.72285 cumulative IPC: 1.17907 (Simulation time: 0 hr 55 min 36 sec) 
Heartbeat CPU 0 instructions: 650000000 cycles: 249465840 heartbeat IPC: 1.78545 cumulative IPC: 1.20639 (Simulation time: 0 hr 56 min 36 sec) 
Heartbeat CPU 0 instructions: 660000000 cycles: 255272852 heartbeat IPC: 1.72206 cumulative IPC: 1.22939 (Simulation time: 0 hr 57 min 45 sec) 
Heartbeat CPU 0 instructions: 670000000 cycles: 261220668 heartbeat IPC: 1.68129 cumulative IPC: 1.24914 (Simulation time: 0 hr 58 min 53 sec) 
Heartbeat CPU 0 instructions: 680000002 cycles: 267075043 heartbeat IPC: 1.70812 cumulative IPC: 1.26807 (Simulation time: 1 hr 0 min 7 sec) 
Heartbeat CPU 0 instructions: 690000000 cycles: 272875493 heartbeat IPC: 1.724 cumulative IPC: 1.28597 (Simulation time: 1 hr 1 min 28 sec) 
Heartbeat CPU 0 instructions: 700000001 cycles: 281347530 heartbeat IPC: 1.18035 cumulative IPC: 1.28025 (Simulation time: 1 hr 2 min 53 sec) 
Heartbeat CPU 0 instructions: 710000001 cycles: 294599995 heartbeat IPC: 0.754577 cumulative IPC: 1.23914 (Simulation time: 1 hr 4 min 3 sec) 
Heartbeat CPU 0 instructions: 720000002 cycles: 306324634 heartbeat IPC: 0.852905 cumulative IPC: 1.21415 (Simulation time: 1 hr 5 min 5 sec) 
Heartbeat CPU 0 instructions: 730000001 cycles: 315638116 heartbeat IPC: 1.07371 cumulative IPC: 1.20728 (Simulation time: 1 hr 5 min 56 sec) 
Heartbeat CPU 0 instructions: 740000000 cycles: 320926695 heartbeat IPC: 1.89087 cumulative IPC: 1.22575 (Simulation time: 1 hr 7 min 3 sec) 
Heartbeat CPU 0 instructions: 750000000 cycles: 326526701 heartbeat IPC: 1.78571 cumulative IPC: 1.24132 (Simulation time: 1 hr 8 min 11 sec) 
Heartbeat CPU 0 instructions: 760000000 cycles: 331991458 heartbeat IPC: 1.82991 cumulative IPC: 1.25686 (Simulation time: 1 hr 9 min 27 sec) 
Heartbeat CPU 0 instructions: 770000001 cycles: 337390021 heartbeat IPC: 1.85234 cumulative IPC: 1.27201 (Simulation time: 1 hr 10 min 31 sec) 
Heartbeat CPU 0 instructions: 780000003 cycles: 342664953 heartbeat IPC: 1.89576 cumulative IPC: 1.28713 (Simulation time: 1 hr 11 min 18 sec) 
Heartbeat CPU 0 instructions: 790000001 cycles: 348026842 heartbeat IPC: 1.86501 cumulative IPC: 1.30104 (Simulation time: 1 hr 12 min 21 sec) 
Heartbeat CPU 0 instructions: 800000001 cycles: 353549020 heartbeat IPC: 1.81088 cumulative IPC: 1.31336 (Simulation time: 1 hr 13 min 36 sec) 
Heartbeat CPU 0 instructions: 810000000 cycles: 359033468 heartbeat IPC: 1.82334 cumulative IPC: 1.32532 (Simulation time: 1 hr 14 min 52 sec) 
Heartbeat CPU 0 instructions: 820000004 cycles: 364818404 heartbeat IPC: 1.72863 cumulative IPC: 1.33505 (Simulation time: 1 hr 15 min 56 sec) 
Heartbeat CPU 0 instructions: 830000004 cycles: 370343361 heartbeat IPC: 1.80997 cumulative IPC: 1.34575 (Simulation time: 1 hr 16 min 56 sec) 
Heartbeat CPU 0 instructions: 840000000 cycles: 375607712 heartbeat IPC: 1.89957 cumulative IPC: 1.35739 (Simulation time: 1 hr 18 min 17 sec) 
Heartbeat CPU 0 instructions: 850000000 cycles: 381086264 heartbeat IPC: 1.8253 cumulative IPC: 1.36741 (Simulation time: 1 hr 19 min 38 sec) 
Heartbeat CPU 0 instructions: 860000000 cycles: 386728697 heartbeat IPC: 1.77229 cumulative IPC: 1.37614 (Simulation time: 1 hr 20 min 28 sec) 
Heartbeat CPU 0 instructions: 870000002 cycles: 392220511 heartbeat IPC: 1.82089 cumulative IPC: 1.38528 (Simulation time: 1 hr 21 min 15 sec) 
Heartbeat CPU 0 instructions: 880000000 cycles: 397801373 heartbeat IPC: 1.79184 cumulative IPC: 1.39361 (Simulation time: 1 hr 22 min 2 sec) 
Heartbeat CPU 0 instructions: 890000002 cycles: 403151106 heartbeat IPC: 1.86925 cumulative IPC: 1.40276 (Simulation time: 1 hr 23 min 13 sec) 
Heartbeat CPU 0 instructions: 900000000 cycles: 408660789 heartbeat IPC: 1.81499 cumulative IPC: 1.41077 (Simulation time: 1 hr 24 min 31 sec) 
Heartbeat CPU 0 instructions: 910000000 cycles: 416359612 heartbeat IPC: 1.2989 cumulative IPC: 1.40781 (Simulation time: 1 hr 25 min 55 sec) 
Heartbeat CPU 0 instructions: 920000001 cycles: 429041093 heartbeat IPC: 0.788552 cumulative IPC: 1.38197 (Simulation time: 1 hr 27 min 25 sec) 
Heartbeat CPU 0 instructions: 930000001 cycles: 440638392 heartbeat IPC: 0.86227 cumulative IPC: 1.36287 (Simulation time: 1 hr 28 min 49 sec) 
Heartbeat CPU 0 instructions: 940000001 cycles: 452251206 heartbeat IPC: 0.861118 cumulative IPC: 1.34506 (Simulation time: 1 hr 30 min 17 sec) 
Heartbeat CPU 0 instructions: 950000004 cycles: 457626324 heartbeat IPC: 1.86042 cumulative IPC: 1.35339 (Simulation time: 1 hr 31 min 26 sec) 
Heartbeat CPU 0 instructions: 960000000 cycles: 462904007 heartbeat IPC: 1.89477 cumulative IPC: 1.36185 (Simulation time: 1 hr 32 min 11 sec) 
Heartbeat CPU 0 instructions: 970000003 cycles: 468153328 heartbeat IPC: 1.90501 cumulative IPC: 1.37016 (Simulation time: 1 hr 33 min 13 sec) 
Heartbeat CPU 0 instructions: 980000001 cycles: 473550840 heartbeat IPC: 1.85271 cumulative IPC: 1.37763 (Simulation time: 1 hr 34 min 32 sec) 
Heartbeat CPU 0 instructions: 990000004 cycles: 478909334 heartbeat IPC: 1.8662 cumulative IPC: 1.38503 (Simulation time: 1 hr 35 min 28 sec) 
Heartbeat CPU 0 instructions: 1000000000 cycles: 484216432 heartbeat IPC: 1.88427 cumulative IPC: 1.39241 (Simulation time: 1 hr 36 min 21 sec) 
Heartbeat CPU 0 instructions: 1010000000 cycles: 489123264 heartbeat IPC: 2.03797 cumulative IPC: 1.40111 (Simulation time: 1 hr 37 min 22 sec) 
Heartbeat CPU 0 instructions: 1020000001 cycles: 494366803 heartbeat IPC: 1.90711 cumulative IPC: 1.4083 (Simulation time: 1 hr 38 min 11 sec) 
Heartbeat CPU 0 instructions: 1030000001 cycles: 499752622 heartbeat IPC: 1.85673 cumulative IPC: 1.41475 (Simulation time: 1 hr 38 min 56 sec) 
Heartbeat CPU 0 instructions: 1040000004 cycles: 505201379 heartbeat IPC: 1.83528 cumulative IPC: 1.42078 (Simulation time: 1 hr 39 min 41 sec) 
Heartbeat CPU 0 instructions: 1050000002 cycles: 510434678 heartbeat IPC: 1.91084 cumulative IPC: 1.42743 (Simulation time: 1 hr 40 min 28 sec) 
Heartbeat CPU 0 instructions: 1060000000 cycles: 515849693 heartbeat IPC: 1.84672 cumulative IPC: 1.43324 (Simulation time: 1 hr 41 min 11 sec) 
Heartbeat CPU 0 instructions: 1070000002 cycles: 521326992 heartbeat IPC: 1.82572 cumulative IPC: 1.43867 (Simulation time: 1 hr 41 min 54 sec) 
Heartbeat CPU 0 instructions: 1080000000 cycles: 526870233 heartbeat IPC: 1.804 cumulative IPC: 1.44371 (Simulation time: 1 hr 43 min 2 sec) 
Heartbeat CPU 0 instructions: 1090000003 cycles: 532246041 heartbeat IPC: 1.86019 cumulative IPC: 1.44921 (Simulation time: 1 hr 43 min 55 sec) 
Heartbeat CPU 0 instructions: 1100000004 cycles: 537312888 heartbeat IPC: 1.97361 cumulative IPC: 1.45566 (Simulation time: 1 hr 44 min 43 sec) 
Heartbeat CPU 0 instructions: 1110000001 cycles: 542525436 heartbeat IPC: 1.91845 cumulative IPC: 1.46143 (Simulation time: 1 hr 45 min 47 sec) 
Heartbeat CPU 0 instructions: 1120000000 cycles: 547879971 heartbeat IPC: 1.86758 cumulative IPC: 1.46658 (Simulation time: 1 hr 46 min 40 sec) 
Heartbeat CPU 0 instructions: 1130000000 cycles: 553270610 heartbeat IPC: 1.85507 cumulative IPC: 1.47147 (Simulation time: 1 hr 47 min 56 sec) 
Heartbeat CPU 0 instructions: 1140000002 cycles: 558564109 heartbeat IPC: 1.88911 cumulative IPC: 1.47657 (Simulation time: 1 hr 48 min 54 sec) 
Heartbeat CPU 0 instructions: 1150000001 cycles: 564010383 heartbeat IPC: 1.83612 cumulative IPC: 1.48103 (Simulation time: 1 hr 50 min 10 sec) 
Heartbeat CPU 0 instructions: 1160000001 cycles: 569298178 heartbeat IPC: 1.89115 cumulative IPC: 1.48592 (Simulation time: 1 hr 51 min 32 sec) 
Heartbeat CPU 0 instructions: 1170000003 cycles: 574695234 heartbeat IPC: 1.85286 cumulative IPC: 1.49032 (Simulation time: 1 hr 52 min 53 sec) 
Heartbeat CPU 0 instructions: 1180000001 cycles: 579787534 heartbeat IPC: 1.96375 cumulative IPC: 1.49562 (Simulation time: 1 hr 54 min 10 sec) 
Heartbeat CPU 0 instructions: 1190000000 cycles: 584845307 heartbeat IPC: 1.97715 cumulative IPC: 1.50092 (Simulation time: 1 hr 55 min 15 sec) 
Heartbeat CPU 0 instructions: 1200000004 cycles: 590337183 heartbeat IPC: 1.82087 cumulative IPC: 1.5047 (Simulation time: 1 hr 56 min 1 sec) 
Heartbeat CPU 0 instructions: 1210000004 cycles: 595760798 heartbeat IPC: 1.84379 cumulative IPC: 1.50861 (Simulation time: 1 hr 56 min 45 sec) 
Heartbeat CPU 0 instructions: 1220000004 cycles: 604274023 heartbeat IPC: 1.17464 cumulative IPC: 1.50267 (Simulation time: 1 hr 57 min 32 sec) 
Heartbeat CPU 0 instructions: 1230000004 cycles: 616473552 heartbeat IPC: 0.819704 cumulative IPC: 1.48571 (Simulation time: 1 hr 58 min 20 sec) 
Heartbeat CPU 0 instructions: 1240000001 cycles: 626083700 heartbeat IPC: 1.04057 cumulative IPC: 1.47717 (Simulation time: 1 hr 59 min 23 sec) 
Heartbeat CPU 0 instructions: 1250000002 cycles: 639039291 heartbeat IPC: 0.771868 cumulative IPC: 1.45939 (Simulation time: 2 hr 0 min 53 sec) 
Heartbeat CPU 0 instructions: 1260000003 cycles: 644631740 heartbeat IPC: 1.78813 cumulative IPC: 1.46293 (Simulation time: 2 hr 1 min 39 sec) 
Heartbeat CPU 0 instructions: 1270000000 cycles: 650113834 heartbeat IPC: 1.82412 cumulative IPC: 1.4667 (Simulation time: 2 hr 2 min 24 sec) 
Heartbeat CPU 0 instructions: 1280000001 cycles: 655783860 heartbeat IPC: 1.76366 cumulative IPC: 1.46988 (Simulation time: 2 hr 3 min 10 sec) 
Heartbeat CPU 0 instructions: 1290000001 cycles: 661480375 heartbeat IPC: 1.75546 cumulative IPC: 1.47291 (Simulation time: 2 hr 3 min 58 sec) 
Heartbeat CPU 0 instructions: 1300000002 cycles: 667151744 heartbeat IPC: 1.76324 cumulative IPC: 1.47595 (Simulation time: 2 hr 4 min 47 sec) 
Heartbeat CPU 0 instructions: 1310000000 cycles: 672856180 heartbeat IPC: 1.75302 cumulative IPC: 1.47883 (Simulation time: 2 hr 5 min 35 sec) 
Heartbeat CPU 0 instructions: 1320000000 cycles: 680261926 heartbeat IPC: 1.3503 cumulative IPC: 1.47712 (Simulation time: 2 hr 6 min 22 sec) 
Heartbeat CPU 0 instructions: 1330000000 cycles: 692833312 heartbeat IPC: 0.795457 cumulative IPC: 1.46202 (Simulation time: 2 hr 7 min 14 sec) 
Heartbeat CPU 0 instructions: 1340000001 cycles: 704996590 heartbeat IPC: 0.822147 cumulative IPC: 1.4486 (Simulation time: 2 hr 8 min 2 sec) 
Heartbeat CPU 0 instructions: 1350000000 cycles: 713981497 heartbeat IPC: 1.11298 cumulative IPC: 1.44348 (Simulation time: 2 hr 8 min 55 sec) 
Heartbeat CPU 0 instructions: 1360000004 cycles: 719762223 heartbeat IPC: 1.72989 cumulative IPC: 1.44627 (Simulation time: 2 hr 10 min 7 sec) 
Heartbeat CPU 0 instructions: 1370000004 cycles: 725449111 heartbeat IPC: 1.75843 cumulative IPC: 1.44922 (Simulation time: 2 hr 10 min 53 sec) 
Heartbeat CPU 0 instructions: 1380000004 cycles: 731236512 heartbeat IPC: 1.72789 cumulative IPC: 1.45188 (Simulation time: 2 hr 11 min 39 sec) 
Heartbeat CPU 0 instructions: 1390000004 cycles: 736891250 heartbeat IPC: 1.76843 cumulative IPC: 1.45481 (Simulation time: 2 hr 12 min 27 sec) 
Heartbeat CPU 0 instructions: 1400000002 cycles: 742751758 heartbeat IPC: 1.70634 cumulative IPC: 1.4572 (Simulation time: 2 hr 13 min 15 sec) 
Heartbeat CPU 0 instructions: 1410000000 cycles: 748556197 heartbeat IPC: 1.72282 cumulative IPC: 1.45967 (Simulation time: 2 hr 14 min 5 sec) 
Heartbeat CPU 0 instructions: 1420000000 cycles: 760308131 heartbeat IPC: 0.850924 cumulative IPC: 1.44841 (Simulation time: 2 hr 15 min 34 sec) 
Heartbeat CPU 0 instructions: 1430000001 cycles: 771308635 heartbeat IPC: 0.909049 cumulative IPC: 1.43922 (Simulation time: 2 hr 16 min 35 sec) 
Heartbeat CPU 0 instructions: 1440000004 cycles: 785138541 heartbeat IPC: 0.723071 cumulative IPC: 1.42422 (Simulation time: 2 hr 17 min 26 sec) 
Heartbeat CPU 0 instructions: 1450000000 cycles: 795309396 heartbeat IPC: 0.983201 cumulative IPC: 1.41753 (Simulation time: 2 hr 18 min 18 sec) 
Heartbeat CPU 0 instructions: 1460000004 cycles: 810329496 heartbeat IPC: 0.665775 cumulative IPC: 1.40105 (Simulation time: 2 hr 19 min 14 sec) 
Heartbeat CPU 0 instructions: 1470000003 cycles: 820278662 heartbeat IPC: 1.00511 cumulative IPC: 1.39538 (Simulation time: 2 hr 20 min 11 sec) 
Heartbeat CPU 0 instructions: 1480000003 cycles: 825556526 heartbeat IPC: 1.89471 cumulative IPC: 1.39914 (Simulation time: 2 hr 21 min 2 sec) 
Heartbeat CPU 0 instructions: 1490000001 cycles: 830889754 heartbeat IPC: 1.87504 cumulative IPC: 1.40274 (Simulation time: 2 hr 21 min 44 sec) 
Heartbeat CPU 0 instructions: 1500000001 cycles: 835952323 heartbeat IPC: 1.97528 cumulative IPC: 1.40682 (Simulation time: 2 hr 22 min 26 sec) 
Heartbeat CPU 0 instructions: 1510000000 cycles: 841018263 heartbeat IPC: 1.97397 cumulative IPC: 1.41083 (Simulation time: 2 hr 23 min 12 sec) 
Heartbeat CPU 0 instructions: 1520000002 cycles: 846241528 heartbeat IPC: 1.91451 cumulative IPC: 1.41448 (Simulation time: 2 hr 23 min 59 sec) 
Heartbeat CPU 0 instructions: 1530000002 cycles: 851435329 heartbeat IPC: 1.92537 cumulative IPC: 1.41813 (Simulation time: 2 hr 24 min 45 sec) 
Heartbeat CPU 0 instructions: 1540000002 cycles: 856662851 heartbeat IPC: 1.91295 cumulative IPC: 1.42167 (Simulation time: 2 hr 25 min 31 sec) 
Heartbeat CPU 0 instructions: 1550000002 cycles: 861962966 heartbeat IPC: 1.88675 cumulative IPC: 1.42501 (Simulation time: 2 hr 26 min 13 sec) 
Heartbeat CPU 0 instructions: 1560000002 cycles: 867021661 heartbeat IPC: 1.97679 cumulative IPC: 1.42878 (Simulation time: 2 hr 27 min 2 sec) 
Heartbeat CPU 0 instructions: 1570000003 cycles: 871920271 heartbeat IPC: 2.0414 cumulative IPC: 1.43279 (Simulation time: 2 hr 27 min 42 sec) 
Heartbeat CPU 0 instructions: 1580000003 cycles: 876830995 heartbeat IPC: 2.03636 cumulative IPC: 1.43674 (Simulation time: 2 hr 28 min 22 sec) 
Heartbeat CPU 0 instructions: 1590000002 cycles: 882151231 heartbeat IPC: 1.87962 cumulative IPC: 1.43985 (Simulation time: 2 hr 29 min 4 sec) 
Heartbeat CPU 0 instructions: 1600000004 cycles: 887375030 heartbeat IPC: 1.91432 cumulative IPC: 1.4431 (Simulation time: 2 hr 30 min 8 sec) 
Heartbeat CPU 0 instructions: 1610000003 cycles: 892746004 heartbeat IPC: 1.86186 cumulative IPC: 1.44603 (Simulation time: 2 hr 30 min 53 sec) 
Heartbeat CPU 0 instructions: 1620000001 cycles: 897940915 heartbeat IPC: 1.92496 cumulative IPC: 1.44925 (Simulation time: 2 hr 31 min 42 sec) 
Heartbeat CPU 0 instructions: 1630000001 cycles: 903206051 heartbeat IPC: 1.89929 cumulative IPC: 1.4523 (Simulation time: 2 hr 32 min 31 sec) 
Heartbeat CPU 0 instructions: 1640000004 cycles: 908338576 heartbeat IPC: 1.94836 cumulative IPC: 1.45555 (Simulation time: 2 hr 33 min 24 sec) 
Heartbeat CPU 0 instructions: 1650000003 cycles: 913735205 heartbeat IPC: 1.85301 cumulative IPC: 1.45827 (Simulation time: 2 hr 34 min 40 sec) 
Heartbeat CPU 0 instructions: 1660000000 cycles: 918882873 heartbeat IPC: 1.94263 cumulative IPC: 1.46141 (Simulation time: 2 hr 35 min 34 sec) 
Heartbeat CPU 0 instructions: 1670000002 cycles: 924436367 heartbeat IPC: 1.80067 cumulative IPC: 1.46376 (Simulation time: 2 hr 36 min 19 sec) 
Heartbeat CPU 0 instructions: 1680000000 cycles: 929658106 heartbeat IPC: 1.91507 cumulative IPC: 1.46669 (Simulation time: 2 hr 37 min 9 sec) 
Heartbeat CPU 0 instructions: 1690000002 cycles: 934779007 heartbeat IPC: 1.95278 cumulative IPC: 1.46977 (Simulation time: 2 hr 38 min 6 sec) 
Heartbeat CPU 0 instructions: 1700000003 cycles: 940111503 heartbeat IPC: 1.87529 cumulative IPC: 1.47242 (Simulation time: 2 hr 38 min 52 sec) 
Heartbeat CPU 0 instructions: 1710000000 cycles: 945171036 heartbeat IPC: 1.97647 cumulative IPC: 1.47553 (Simulation time: 2 hr 39 min 55 sec) 
Heartbeat CPU 0 instructions: 1720000004 cycles: 950045942 heartbeat IPC: 2.05132 cumulative IPC: 1.47893 (Simulation time: 2 hr 40 min 42 sec) 
Heartbeat CPU 0 instructions: 1730000004 cycles: 955041196 heartbeat IPC: 2.0019 cumulative IPC: 1.48208 (Simulation time: 2 hr 41 min 32 sec) 
Heartbeat CPU 0 instructions: 1740000003 cycles: 960436955 heartbeat IPC: 1.85331 cumulative IPC: 1.48448 (Simulation time: 2 hr 42 min 15 sec) 
Heartbeat CPU 0 instructions: 1750000003 cycles: 965502970 heartbeat IPC: 1.97394 cumulative IPC: 1.48743 (Simulation time: 2 hr 43 min 5 sec) 
Heartbeat CPU 0 instructions: 1760000000 cycles: 970733901 heartbeat IPC: 1.91171 cumulative IPC: 1.49005 (Simulation time: 2 hr 43 min 54 sec) 
Heartbeat CPU 0 instructions: 1770000002 cycles: 975891056 heartbeat IPC: 1.93905 cumulative IPC: 1.49278 (Simulation time: 2 hr 44 min 42 sec) 
Heartbeat CPU 0 instructions: 1780000004 cycles: 980956024 heartbeat IPC: 1.97435 cumulative IPC: 1.49563 (Simulation time: 2 hr 45 min 28 sec) 
Heartbeat CPU 0 instructions: 1790000001 cycles: 986237893 heartbeat IPC: 1.89327 cumulative IPC: 1.49807 (Simulation time: 2 hr 46 min 13 sec) 
Heartbeat CPU 0 instructions: 1800000001 cycles: 991398541 heartbeat IPC: 1.93774 cumulative IPC: 1.50068 (Simulation time: 2 hr 47 min 2 sec) 
Heartbeat CPU 0 instructions: 1810000001 cycles: 996563767 heartbeat IPC: 1.93602 cumulative IPC: 1.50327 (Simulation time: 2 hr 47 min 54 sec) 
Heartbeat CPU 0 instructions: 1820000003 cycles: 1001845925 heartbeat IPC: 1.89317 cumulative IPC: 1.50561 (Simulation time: 2 hr 48 min 40 sec) 
Heartbeat CPU 0 instructions: 1830000001 cycles: 1007127492 heartbeat IPC: 1.89338 cumulative IPC: 1.50794 (Simulation time: 2 hr 49 min 43 sec) 
Heartbeat CPU 0 instructions: 1840000000 cycles: 1012139109 heartbeat IPC: 1.99536 cumulative IPC: 1.51069 (Simulation time: 2 hr 50 min 50 sec) 
Heartbeat CPU 0 instructions: 1850000002 cycles: 1017071694 heartbeat IPC: 2.02733 cumulative IPC: 1.51355 (Simulation time: 2 hr 51 min 36 sec) 
Heartbeat CPU 0 instructions: 1860000000 cycles: 1022536358 heartbeat IPC: 1.82994 cumulative IPC: 1.51547 (Simulation time: 2 hr 52 min 18 sec) 
Heartbeat CPU 0 instructions: 1870000003 cycles: 1027744342 heartbeat IPC: 1.92013 cumulative IPC: 1.51781 (Simulation time: 2 hr 53 min 4 sec) 
Heartbeat CPU 0 instructions: 1880000000 cycles: 1033008176 heartbeat IPC: 1.89976 cumulative IPC: 1.52002 (Simulation time: 2 hr 53 min 52 sec) 
Heartbeat CPU 0 instructions: 1890000002 cycles: 1040418887 heartbeat IPC: 1.3494 cumulative IPC: 1.51864 (Simulation time: 2 hr 54 min 44 sec) 
Heartbeat CPU 0 instructions: 1900000001 cycles: 1051481911 heartbeat IPC: 0.903912 cumulative IPC: 1.5113 (Simulation time: 2 hr 55 min 33 sec) 
Heartbeat CPU 0 instructions: 1910000003 cycles: 1060228468 heartbeat IPC: 1.14331 cumulative IPC: 1.50786 (Simulation time: 2 hr 56 min 21 sec) 
Heartbeat CPU 0 instructions: 1920000000 cycles: 1073750493 heartbeat IPC: 0.739534 cumulative IPC: 1.49691 (Simulation time: 2 hr 57 min 10 sec) 
Heartbeat CPU 0 instructions: 1930000001 cycles: 1080392323 heartbeat IPC: 1.50561 cumulative IPC: 1.49697 (Simulation time: 2 hr 57 min 54 sec) 
Heartbeat CPU 0 instructions: 1940000000 cycles: 1086113345 heartbeat IPC: 1.74794 cumulative IPC: 1.49846 (Simulation time: 2 hr 58 min 42 sec) 
Heartbeat CPU 0 instructions: 1950000000 cycles: 1091482207 heartbeat IPC: 1.86259 cumulative IPC: 1.50048 (Simulation time: 2 hr 59 min 25 sec) 
Heartbeat CPU 0 instructions: 1960000002 cycles: 1097125761 heartbeat IPC: 1.77193 cumulative IPC: 1.50206 (Simulation time: 3 hr 0 min 11 sec) 
Heartbeat CPU 0 instructions: 1970000000 cycles: 1102793233 heartbeat IPC: 1.76445 cumulative IPC: 1.50358 (Simulation time: 3 hr 0 min 56 sec) 
Heartbeat CPU 0 instructions: 1980000004 cycles: 1108651768 heartbeat IPC: 1.70691 cumulative IPC: 1.50479 (Simulation time: 3 hr 1 min 43 sec) 
Heartbeat CPU 0 instructions: 1990000001 cycles: 1114159372 heartbeat IPC: 1.81567 cumulative IPC: 1.50652 (Simulation time: 3 hr 2 min 30 sec) 
*** Reached end of trace: traces/600.perlbench_s-570B.champsimtrace.xz
Heartbeat CPU 0 instructions: 2000000003 cycles: 1119960205 heartbeat IPC: 1.72389 cumulative IPC: 1.50779 (Simulation time: 3 hr 3 min 19 sec) 
Finished CPU 0 instructions: 1500000001 cycles: 994832758 cumulative IPC: 1.50779 (Simulation time: 3 hr 3 min 19 sec) 

ChampSim completed all CPUs

Region of Interest Statistics

CPU 0 cumulative IPC: 1.50779 instructions: 1500000001 cycles: 994832758
cpu0_DTLB TOTAL     ACCESS:  277324384  HIT:  275494091  MISS:    1830293
cpu0_DTLB LOAD      ACCESS:  154033977  HIT:  152356843  MISS:    1677134
cpu0_DTLB RFO       ACCESS:  123290407  HIT:  123137248  MISS:     153159
cpu0_DTLB PREFETCH  ACCESS:          0  HIT:          0  MISS:          0
cpu0_DTLB WRITEBACK ACCESS:          0  HIT:          0  MISS:          0
cpu0_DTLB TRANSLATION ACCESS:          0  HIT:          0  MISS:          0
cpu0_DTLB PREFETCH  REQUESTED:          0  ISSUED:          0  USEFUL:          0  USELESS:          0
cpu0_DTLB AVERAGE MISS LATENCY: 9.41777 cycles
cpu0_ITLB TOTAL     ACCESS:  117880121  HIT:  117711518  MISS:     168603
cpu0_ITLB LOAD      ACCESS:  117880121  HIT:  117711518  MISS:     168603
cpu0_ITLB RFO       ACCESS:          0  HIT:          0  MISS:          0
cpu0_ITLB PREFETCH  ACCESS:          0  HIT:          0  MISS:          0
cpu0_ITLB WRITEBACK ACCESS:          0  HIT:          0  MISS:          0
cpu0_ITLB TRANSLATION ACCESS:          0  HIT:          0  MISS:          0
cpu0_ITLB PREFETCH  REQUESTED:          0  ISSUED:          0  USEFUL:          0  USELESS:          0
cpu0_ITLB AVERAGE MISS LATENCY: 9.14728 cycles
cpu0_L1I TOTAL     ACCESS:   68734365  HIT:   66307606  MISS:    2426759
cpu0_L1I LOAD      ACCESS:   68734365  HIT:   66307606  MISS:    2426759
cpu0_L1I RFO       ACCESS:          0  HIT:          0  MISS:          0
cpu0_L1I PREFETCH  ACCESS:          0  HIT:          0  MISS:          0
cpu0_L1I WRITEBACK ACCESS:          0  HIT:          0  MISS:          0
cpu0_L1I TRANSLATION ACCESS:          0  HIT:          0  MISS:          0
cpu0_L1I PREFETCH  REQUESTED:          0  ISSUED:          0  USEFUL:          0  USELESS:          0
cpu0_L1I AVERAGE MISS LATENCY: 14.3916 cycles
cpu0_STLB TOTAL     ACCESS:    1998896  HIT:    1925772  MISS:      73124
cpu0_STLB LOAD      ACCESS:    1845737  HIT:    1781444  MISS:      64293
cpu0_STLB RFO       ACCESS:     153159  HIT:     144328  MISS:       8831
cpu0_STLB PREFETCH  ACCESS:          0  HIT:          0  MISS:          0
cpu0_STLB WRITEBACK ACCESS:          0  HIT:          0  MISS:          0
cpu0_STLB TRANSLATION ACCESS:          0  HIT:          0  MISS:          0
cpu0_STLB PREFETCH  REQUESTED:          0  ISSUED:          0  USEFUL:          0  USELESS:          0
cpu0_STLB AVERAGE MISS LATENCY: 10.3475 cycles
cpu0_L1D TOTAL     ACCESS:  493371289  HIT:  491682484  MISS:    1688805
cpu0_L1D LOAD      ACCESS:  182241158  HIT:  180701469  MISS:    1539689
cpu0_L1D RFO       ACCESS:  311057438  HIT:  310916187  MISS:     141251
cpu0_L1D PREFETCH  ACCESS:          0  HIT:          0  MISS:          0
cpu0_L1D WRITEBACK ACCESS:          0  HIT:          0  MISS:          0
cpu0_L1D TRANSLATION ACCESS:      72693  HIT:      64828  MISS:       7865
cpu0_L1D PREFETCH  REQUESTED:          0  ISSUED:          0  USEFUL:          0  USELESS:          0
cpu0_L1D AVERAGE MISS LATENCY: 80.5219 cycles
cpu0_L2C TOTAL     ACCESS:    4556571  HIT:    3662350  MISS:     894221
cpu0_L2C LOAD      ACCESS:    3966407  HIT:    3126361  MISS:     840046
cpu0_L2C RFO       ACCESS:     141241  HIT:      89738  MISS:      51503
cpu0_L2C PREFETCH  ACCESS:          0  HIT:          0  MISS:          0
cpu0_L2C WRITEBACK ACCESS:     441058  HIT:     438691  MISS:       2367
cpu0_L2C TRANSLATION ACCESS:       7865  HIT:       7560  MISS:        305
cpu0_L2C PREFETCH  REQUESTED:          0  ISSUED:          0  USEFUL:          0  USELESS:          0
cpu0_L2C AVERAGE MISS LATENCY: 140.436 cycles
LLC TOTAL     ACCESS:    1066245  HIT:     378690  MISS:     687555
LLC LOAD      ACCESS:     840045  HIT:     190167  MISS:     649878
LLC RFO       ACCESS:      51503  HIT:      15580  MISS:      35923
LLC PREFETCH  ACCESS:          0  HIT:          0  MISS:          0
LLC WRITEBACK ACCESS:     174392  HIT:     172765  MISS:       1627
LLC TRANSLATION ACCESS:        305  HIT:        178  MISS:        127
LLC PREFETCH  REQUESTED:          0  ISSUED:          0  USEFUL:          0  USELESS:          0
LLC AVERAGE MISS LATENCY: 155.408 cycles
~~~~~~~~~~Reuse Distance Profiler output~~~~~~~~~~
0	107694784	5535696
1	47654976	7592768
2	33060144	10079136
3	23976320	8352992
4	20427056	5288144
5	16350464	4371488
6	19055696	5329664
7	22554384	5473568
8	17416384	4295232
9	16863904	3467648
10	14379776	4594144
11	14418752	4836256
12	9656496	2823152
13	10333504	3830416
14	6224880	1794688
15	5758800	1943408
16	8036880	3428080
17	6552768	2803584
18	5846064	2223040
19	8853872	2616976
20	7486896	3319680
21	5498496	2432064
22	5771248	2362864
23	5270880	2564720
24	5008112	1617424
25	5011568	2011792
26	4284352	1009744
27	2503088	992976
28	3147584	1118064
29	2360128	777472
30	2480960	995504
31	3014608	1481456
32	2974208	871616
33	2472528	1201840
34	2088144	1087056
35	2278384	1254864
36	3206816	1405008
37	1920096	1188576
38	1626240	699872
39	2364656	1457248
40	1461824	839056
41	1338912	834912
42	1820768	848592
43	2139664	1299488
44	1843600	879136
45	2467792	1063328
46	1533616	606224
47	3274976	1902784
48	2233440	1508096
49	1740496	828944
50	1366352	869168
51	1425536	763392
52	1494544	654352
53	1286320	575536
54	1002864	498864
55	942784	589424
56	1007968	610992
57	1707440	639920
58	2807920	1448448
59	1347776	577664
60	2270768	1057968
61	1702912	1007648
62	1280288	713184
63	1592960	1098720
64	3683568	1918528
66	2903552	1516272
68	2403792	1136320
70	3140448	1441824
72	1542528	913872
74	2313424	939120
76	1578192	723200
78	1427360	648384
80	1614880	1139024
82	2222096	1854176
84	1329584	994720
86	1025808	724272
88	902464	546384
90	1430352	1181872
92	1759968	1543568
94	2113760	1801712
96	1037888	737920
98	1553616	1297232
100	1118864	825408
102	1133680	906224
104	973856	765648
106	1225024	1048800
108	1058480	894064
110	656864	504704
112	903200	737584
114	1102560	873392
116	1014400	803248
118	787088	622928
120	903984	661936
122	965936	771648
124	702528	513776
126	930192	763008
128	1745552	985968
132	1750000	1537808
136	2423952	1714144
140	5912496	4902528
144	2684720	2044096
148	4251440	3541920
152	3458896	3228144
156	1619152	1486928
160	1243312	1062240
164	1115968	928240
168	1609664	1380240
172	1094256	841136
176	2291840	1899264
180	2058080	1683168
184	1321424	1129984
188	963776	837680
192	681408	580848
196	705424	581904
200	636288	517088
204	462992	373856
208	529520	430416
212	494176	415152
216	437040	340512
220	437616	355120
224	397984	336928
228	526832	449040
232	653872	589232
236	402608	310368
240	371968	291680
244	712176	645296
248	385056	332896
252	346688	276112
256	1013088	743296
264	938848	817008
272	725536	588128
280	2274176	2004528
288	1070672	964336
296	1208592	1103568
304	658864	571696
312	650800	530896
320	506672	400608
328	734512	614400
336	700032	564352
344	880976	728000
352	740784	627152
360	794240	676592
368	525104	454800
376	893616	776368
384	496128	426976
392	364496	304848
400	311968	265104
408	230976	190992
416	349056	290992
424	290992	232688
432	238432	198224
440	264880	223120
448	187296	158512
456	294192	265184
464	179168	151312
472	170304	145424
480	143392	123984
488	117488	99328
496	112912	97408
504	103680	88992
512	217792	192752
528	253056	222640
544	245760	214528
560	312560	270080
576	418672	380768
592	315712	271536
608	149904	127248
624	339520	298768
640	120256	101168
656	122448	108176
672	150560	128112
688	130864	114880
704	115136	100832
720	127008	112784
736	114320	101392
752	108672	97760
768	101648	88784
784	99488	84384
800	86896	74848
816	109424	99888
832	83184	71056
848	81264	71056
864	111680	97408
880	87168	77888
896	80272	70656
912	65792	56176
928	70192	60144
944	64544	54144
960	82864	71360
976	70400	62032
992	59184	51312
1008	64992	57280
1024	121712	108080
1056	129712	115968
1088	126304	111792
1120	115920	102240
1152	119280	102752
1184	115568	99232
1216	96416	77952
1248	104624	87360
1280	100336	84048
1312	95200	82016
1344	104000	82240
1376	121424	98528
1408	119120	104080
1440	94608	82256
1472	83920	72512
1504	82000	69232
1536	71584	60224
1568	58256	49920
1600	56336	48144
1632	53648	46480
1664	53952	48000
1696	58672	51952
1728	49440	42928
1760	51120	44912
1792	56976	49952
1824	51888	46016
1856	43520	38432
1888	46400	41056
1920	43552	38368
1952	45408	39632
1984	47024	40384
2016	42800	37328
2048	102128	87664
2112	78672	70432
2176	73472	66016
2240	87040	77856
2304	76544	68080
2368	75984	67264
2432	77376	69728
2496	74512	65008
2560	80256	70928
2624	74624	65616
2688	64848	57664
2752	70128	63568
2816	68400	62256
2880	62304	55120
2944	72528	65088
3008	59120	52080
3072	61760	54032
3136	58160	51392
3200	63424	56176
3264	50928	46128
3328	44912	39984
3392	37040	32976
3456	37264	33472
3520	36368	32976
3584	31072	27440
3648	31888	28160
3712	36544	32672
3776	34304	30560
3840	37120	33024
3904	34768	31232
3968	36528	33152
4032	36320	33264
4096	66352	59792
4224	71472	64160
4352	75376	69200
4480	59216	52752
4608	66048	60496
4736	62416	57472
4864	59520	54416
4992	52000	46976
5120	59312	54656
5248	52752	48176
5376	47344	42624
5504	48912	45248
5632	55040	50240
5760	49808	46752
5888	37488	34768
6016	39536	36464
6144	37440	34064
6272	35904	32080
6400	35392	31808
6528	34128	31440
6656	35984	32864
6784	33296	30752
6912	30320	27616
7040	33936	31584
7168	33424	30288
7296	29104	26576
7424	37312	34800
7552	28976	26256
7680	27488	25360
7808	25184	22960
7936	30032	27952
8064	37840	35232
8192	57248	53088
8448	47360	43760
8704	76144	70784
8960	40016	36880
9216	34288	30960
9472	36032	32304
9728	36784	32752
9984	38112	34336
10240	36720	33072
10496	45536	41312
10752	34288	30512
11008	33584	30160
11264	30016	27072
11520	39392	36048
11776	41664	37872
12032	30128	27280
12288	28208	26064
12544	27136	24704
12800	26752	24144
13056	23344	20768
13312	24368	21776
13568	23728	21424
13824	25552	22752
14080	27888	25040
14336	27648	25312
14592	25968	23440
14848	23984	21760
15104	22784	20896
15360	22528	20672
15616	22480	20048
15872	21904	19920
16128	24928	23056
16384	41056	37728
16896	52304	47280
17408	42256	38368
17920	45312	41952
18432	32192	29520
18944	30016	27248
19456	29152	26304
19968	28336	25648
20480	30304	27600
20992	36800	33904
21504	38496	35424
22016	44960	41856
22528	47968	45008
23040	36416	34096
23552	22448	20400
24064	24640	22400
24576	25296	22688
25088	24688	22288
25600	23056	20768
26112	20336	18432
26624	18656	17024
27136	20096	18560
27648	21136	19072
28160	20528	18816
28672	19456	18032
29184	15296	14288
29696	14080	13232
30208	14320	13088
30720	16912	15664
31232	13904	12832
31744	12000	11200
32256	14048	12912
32768	25312	23344
33792	30352	28176
34816	18128	16864
35840	17664	16096
36864	16288	14464
37888	14384	12560
38912	18064	15984
39936	22464	19664
40960	19296	16992
41984	20784	18624
43008	20976	18880
44032	20816	18560
45056	15072	13184
46080	17264	15104
47104	19808	16656
48128	17840	15552
49152	24544	20544
50176	20736	16944
51200	18128	15120
52224	21904	16576
53248	16368	13120
54272	18032	13808
55296	13408	11168
56320	11792	10656
57344	12832	11664
58368	14288	13088
59392	9232	8592
60416	10864	9936
61440	13472	12560
62464	7904	7024
63488	8912	8160
64512	7840	7264
65536	16032	14784
67584	17648	16272
69632	30304	28512
71680	31920	29792
73728	29408	27856
75776	27264	25760
77824	26736	25584
79872	19632	18656
81920	28992	27680
83968	17248	16016
86016	19184	17968
88064	18480	16832
90112	15440	14400
92160	14000	12800
94208	14672	13632
96256	9952	9184
98304	16320	15024
100352	9168	8288
102400	11264	10560
104448	17520	16400
106496	9136	8224
108544	7728	7200
110592	11552	10880
112640	8464	8080
114688	7712	7200
116736	6736	6272
118784	7472	6944
120832	7680	7104
122880	6320	5712
124928	5888	5392
126976	6096	5728
129024	6496	5904
131072	10384	9472
135168	10928	10064
139264	12544	11664
143360	9712	9040
147456	10032	9232
151552	12496	11408
155648	11072	10224
159744	11728	10736
163840	15808	14400
167936	9568	8960
172032	9216	8368
176128	9840	9184
180224	10592	9808
184320	10032	9344
188416	10224	9344
192512	10288	9472
196608	7968	7584
200704	6848	6176
204800	7760	7280
208896	8112	7600
212992	6528	5776
217088	7296	6896
221184	6272	5840
225280	6928	6608
229376	6048	5680
233472	4112	3856
237568	4720	4352
241664	3984	3712
245760	4832	4592
249856	4720	4416
253952	4416	4112
258048	4160	3824
262144	9120	8448
270336	10288	9680
278528	18208	17088
286720	9472	8656
294912	6672	6224
303104	5920	5488
311296	6000	5520
319488	6272	5616
327680	6016	5376
335872	5136	4480
344064	6304	5552
352256	7328	6272
360448	4464	4112
368640	5408	4816
376832	4704	4272
385024	5152	4688
393216	4768	4272
401408	3744	3408
409600	5504	5088
417792	3984	3664
425984	3680	3328
434176	5856	5488
442368	14816	13808
450560	4208	3776
458752	3568	3088
466944	2800	2384
475136	3232	2864
483328	2688	2496
491520	3264	2864
499712	3408	2848
507904	2752	2528
516096	3200	2752
524288	6064	5424
540672	5952	5168
557056	4160	3760
573440	4352	3824
589824	4736	4288
606208	3552	3168
622592	3472	3216
638976	4608	4064
655360	3072	2624
671744	3120	2832
688128	2720	2384
704512	2608	2224
720896	2288	2016
737280	2608	2288
753664	2768	2384
770048	2464	2240
786432	2608	2304
802816	2096	1984
819200	2080	1600
835584	1872	1840
851968	1632	1440
868352	1728	1440
884736	1520	1296
901120	2240	2112
917504	1712	1616
933888	1328	1168
950272	1280	1056
966656	1424	1328
983040	1920	1568
999424	1536	1360
1015808	1232	1088
1032192	1504	1360
1048576	3632	3376
1081344	2736	2368
1114112	3184	2640
1146880	3152	2896
1179648	3632	3328
1212416	3664	3216
1245184	4736	3840
1277952	5312	4864
1310720	2832	2592
1343488	1888	1696
1376256	2400	2192
1409024	2832	2656
1441792	1744	1616
1474560	3296	2656
1507328	2832	2496
1540096	2384	2256
1572864	2048	1920
1605632	2272	1856
1638400	2048	1872
1671168	1968	1776
1703936	1616	1536
1736704	1664	1488
1769472	2448	2256
1802240	2272	2032
1835008	1792	1584
1867776	3120	2944
1900544	1744	1648
1933312	1824	1712
1966080	1648	1552
1998848	1984	1744
2031616	1136	1024
2064384	800	704
2097152	3408	3088
2162688	2480	2176
2228224	3088	2768
2293760	4448	3904
2359296	3008	2624
2424832	3056	2832
2490368	2832	2592
2555904	1792	1568
2621440	2640	2464
2686976	2496	2176
2752512	2192	2032
2818048	1888	1616
2883584	1520	1360
2949120	2736	2560
3014656	2064	1920
3080192	1792	1520
3145728	1504	1344
3211264	1648	1472
3276800	1232	1072
3342336	1344	1136
3407872	1168	992
3473408	736	640
3538944	640	592
3604480	640	544
3670016	1216	960
3735552	832	672
3801088	480	464
3866624	784	736
3932160	1648	1568
3997696	1584	1504
4063232	992	928
4128768	2352	2240
4194304	1296	1216
4325376	1536	1472
4456448	992	960
4587520	1200	1120
4718592	1200	1184
4849664	704	608
4980736	720	688
5111808	1232	1088
5242880	416	384
5373952	672	624
5505024	1024	944
5636096	480	432
5767168	448	384
5898240	640	576
6029312	400	400
6160384	400	304
6291456	448	384
6422528	608	608
6553600	368	320
6684672	352	304
6815744	496	416
6946816	528	448
7077888	416	368
7208960	1248	1216
7340032	720	656
7471104	336	304
7602176	416	368
7733248	928	848
7864320	800	688
7995392	736	640
8126464	640	608
8257536	1504	1456
8388608	16128	15776
8650752	1312	1200
8912896	992	880
9175040	1424	1200
9437184	816	768
9699328	1392	1312
9961472	1584	1552
10223616	6672	6544
10485760	1984	1856
10747904	2224	2128
11010048	2752	2672
11272192	4064	3792
11534336	4000	3824
11796480	1664	1600
12058624	1024	944
12320768	976	896
12582912	992	912
12845056	1872	1728
13107200	1856	1632
13369344	1488	1392
13631488	2912	2448
13893632	3136	2848
14155776	4384	4080
14417920	18608	18144
14680064	10624	10112
14942208	10208	9792
15204352	20080	19664
15466496	4800	4560
15728640	4064	3888
15990784	5296	5184
16252928	5648	5376
16515072	8272	8112
16777216	6592	6304
17301504	5744	5424
17825792	7280	7056
18350080	5008	4768
18874368	8704	8224
19398656	8400	7888
19922944	18624	17984
20447232	13168	12720
20971520	8032	7632
21495808	7808	7520
22020096	19968	19440
22544384	20768	20032
23068672	6784	6544
23592960	4928	4688
24117248	5168	4784
24641536	4640	4400
25165824	6704	6400
25690112	5920	5616
26214400	4576	4208
26738688	5888	5456
27262976	6320	5728
27787264	5072	4848
28311552	6560	6272
28835840	6784	6416
29360128	9808	9408
29884416	12704	11984
30408704	36672	35200
30932992	50720	49264
31457280	28192	27184
31981568	12592	12032
32505856	7232	6816
33030144	4368	4096
33554432	11232	10608
34603008	42192	40688
35651584	4208	3456
36700160	2288	2112
37748736	2512	2432
38797312	3504	3392
39845888	1872	1808
40894464	1696	1600
41943040	2160	2000
42991616	1792	1744
44040192	2000	1792
45088768	5232	5008
46137344	2720	2528
47185920	1568	1392
48234496	2176	2080
49283072	2960	2864
50331648	2064	2000
51380224	1264	1184
52428800	2640	2528
53477376	1664	1600
54525952	3072	3024
55574528	2320	2208
56623104	3776	3536
57671680	4432	4240
58720256	2416	2256
59768832	4544	3728
60817408	6784	6432
61865984	19600	18768
62914560	20848	20320
63963136	7040	6272
65011712	2496	2224
66060288	2416	2176
67108864	19296	18320
69206016	27936	26864
71303168	2944	2480
73400320	3776	3312
75497472	3904	3680
77594624	4736	4224
79691776	3184	2848
81788928	2496	2288
83886080	3840	3488
85983232	3120	2864
88080384	2176	2112
90177536	4912	4720
92274688	4240	4048
94371840	4960	4464
96468992	4368	3824
98566144	5440	5024
100663296	29872	28752
102760448	12320	11792
104857600	1376	1200
106954752	960	816
109051904	1776	1744
111149056	864	800
113246208	704	400
115343360	1632	1248
117440512	1248	1184
119537664	480	480
121634816	752	736
123731968	400	400
125829120	1008	1008
127926272	1136	1104
130023424	1024	928
132120576	3824	3616
134217728	3616	3456
138412032	3168	3008
142606336	22112	20784
146800640	21280	20496
150994944	432	176
155189248	4192	3712
159383552	80	64
163577856	368	240
167772160	1856	1568
171966464	928	832
176160768	112	112
180355072	48	0
184549376	32	32
188743680	1584	1520
192937984	32	32
197132288	48	32
201326592	272	224
205520896	112	16
209715200	16	0
213909504	48	32
218103808	304	80
222298112	48	48
226492416	0	0
230686720	0	0
234881024	240	224
239075328	32	16
243269632	0	0
247463936	16	0
251658240	64	64
255852544	16	16
260046848	0	0
264241152	16	16
268435456	128	64
276824064	288	208
285212672	48	16
293601280	64	32
301989888	48	32
310378496	48	16
318767104	272	224
327155712	16	16
335544320	304	288
343932928	64	48
352321536	0	0
360710144	0	0
369098752	1104	1024
377487360	0	0
385875968	32	16
394264576	0	0
402653184	64	0
411041792	0	0
419430400	16	16
427819008	0	0
436207616	32	16
444596224	16	16
452984832	0	0
461373440	0	0
469762048	0	0
478150656	0	0
486539264	0	0
494927872	0	0
503316480	16	16
511705088	0	0
520093696	80	80
528482304	0	0
536870912	0	0
553648128	32	16
570425344	96	96
587202560	32	16
603979776	0	0
620756992	0	0
637534208	0	0
654311424	0	0
671088640	0	0
687865856	0	0
704643072	0	0
721420288	0	0
738197504	0	0
754974720	0	0
771751936	0	0
788529152	0	0
805306368	0	0
822083584	0	0
838860800	0	0
855638016	0	0
872415232	0	0
889192448	0	0
905969664	0	0
922746880	0	0
939524096	0	0
956301312	0	0
973078528	0	0
989855744	0	0
1006632960	0	0
1023410176	0	0
1040187392	0	0
1056964608	0	0
1073741824	0	0
1107296256	0	0
1140850688	0	0
1174405120	0	0
1207959552	0	0
1241513984	0	0
1275068416	0	0
1308622848	0	0
1342177280	0	0
1375731712	0	0
1409286144	0	0
1442840576	0	0
1476395008	0	0
1509949440	0	0
1543503872	0	0
1577058304	0	0
1610612736	0	0
1644167168	0	0
1677721600	0	0
1711276032	0	0
1744830464	0	0
1778384896	0	0
1811939328	0	0
1845493760	0	0
1879048192	0	0
1912602624	0	0
1946157056	0	0
1979711488	0	0
2013265920	0	0
2046820352	0	0
2080374784	0	0
2113929216	0	0
2147483648	0	0
2214592512	0	0
2281701376	0	0
2348810240	0	0
2415919104	0	0
2483027968	0	0
2550136832	0	0
2617245696	0	0
2684354560	0	0
2751463424	0	0
2818572288	0	0
2885681152	0	0
2952790016	0	0
3019898880	0	0
3087007744	0	0
3154116608	0	0
3221225472	0	0
3288334336	0	0
3355443200	0	0
3422552064	0	0
3489660928	0	0
3556769792	0	0
3623878656	0	0
3690987520	0	0
3758096384	0	0
3825205248	0	0
3892314112	0	0
3959422976	0	0
4026531840	0	0
4093640704	0	0
4160749568	0	0
4227858432	0	0
~~~~~~~~~~Reuse Distance Profiler output end~~~~~~~~~~

DRAM Statistics
 CHANNEL 0
 RQ ROW_BUFFER_HIT:      73372  ROW_BUFFER_MISS:     612555
 DBUS AVG_CONGESTED_CYCLE:    3.84183
 WQ ROW_BUFFER_HIT:      76389  ROW_BUFFER_MISS:      46786  FULL:          0


CPU 0 Branch Prediction Accuracy: 96.5281% MPKI: 5.20258 Average ROB Occupancy at Mispredict: 107.335
Branch type MPKI
BRANCH_DIRECT_JUMP: 0.000771333
BRANCH_INDIRECT: 0.316513
BRANCH_CONDITIONAL: 4.72384
BRANCH_DIRECT_CALL: 0.000807333
BRANCH_INDIRECT_CALL: 0.155918
BRANCH_RETURN: 0.00472533

