
*** ChampSim Multicore Out-of-Order Simulator ***

Warmup Instructions: 500000000
Simulation Instructions: 1500000000
Number of CPUs: 1
Off-chip DRAM Size: 4 GiB Channels: 1 Width: 64-bit Data Rate: 3200 MT/s

VirtualMemory physical capacity: 8588881920 num_ppages: 2096895
VirtualMemory page size: 4096 log2_page_size: 12

CPU 0 runs traces/602.gcc_s-2375B.champsimtrace.xz
CPU 0 Bimodal branch predictor
Basic BTB sets: 1024 ways: 8 indirect buffer size: 4096 RAS size: 64
Initializing LRU.
Initializing LRU.
Initializing LRU.
Initializing LRU.
Initializing rdLRU.
Initializing LRU.
Initializing LRU.
Heartbeat CPU 0 instructions: 10000003 cycles: 2533447 heartbeat IPC: 3.94719 cumulative IPC: 3.94719 (Simulation time: 0 hr 0 min 59 sec) 
Heartbeat CPU 0 instructions: 20000001 cycles: 5089452 heartbeat IPC: 3.91235 cumulative IPC: 3.9297 (Simulation time: 0 hr 2 min 0 sec) 
Heartbeat CPU 0 instructions: 30000002 cycles: 7607047 heartbeat IPC: 3.97205 cumulative IPC: 3.94371 (Simulation time: 0 hr 2 min 43 sec) 
Heartbeat CPU 0 instructions: 40000003 cycles: 10173080 heartbeat IPC: 3.89707 cumulative IPC: 3.93195 (Simulation time: 0 hr 3 min 30 sec) 
Heartbeat CPU 0 instructions: 50000003 cycles: 12789095 heartbeat IPC: 3.82261 cumulative IPC: 3.90958 (Simulation time: 0 hr 4 min 8 sec) 
Heartbeat CPU 0 instructions: 60000003 cycles: 15342737 heartbeat IPC: 3.91598 cumulative IPC: 3.91065 (Simulation time: 0 hr 4 min 43 sec) 
Heartbeat CPU 0 instructions: 70000001 cycles: 17965779 heartbeat IPC: 3.81237 cumulative IPC: 3.8963 (Simulation time: 0 hr 5 min 24 sec) 
Heartbeat CPU 0 instructions: 80000000 cycles: 20485480 heartbeat IPC: 3.96872 cumulative IPC: 3.90521 (Simulation time: 0 hr 6 min 4 sec) 
Heartbeat CPU 0 instructions: 90000002 cycles: 23000796 heartbeat IPC: 3.97564 cumulative IPC: 3.91291 (Simulation time: 0 hr 6 min 34 sec) 
Heartbeat CPU 0 instructions: 100000003 cycles: 25545383 heartbeat IPC: 3.92991 cumulative IPC: 3.9146 (Simulation time: 0 hr 7 min 9 sec) 
Heartbeat CPU 0 instructions: 110000001 cycles: 28055498 heartbeat IPC: 3.98388 cumulative IPC: 3.9208 (Simulation time: 0 hr 7 min 44 sec) 
Heartbeat CPU 0 instructions: 120000003 cycles: 30585707 heartbeat IPC: 3.95224 cumulative IPC: 3.9234 (Simulation time: 0 hr 8 min 37 sec) 
Heartbeat CPU 0 instructions: 130000003 cycles: 33128797 heartbeat IPC: 3.93222 cumulative IPC: 3.92408 (Simulation time: 0 hr 9 min 38 sec) 
Heartbeat CPU 0 instructions: 140000002 cycles: 35691630 heartbeat IPC: 3.90193 cumulative IPC: 3.92249 (Simulation time: 0 hr 10 min 27 sec) 
Heartbeat CPU 0 instructions: 150000000 cycles: 38212870 heartbeat IPC: 3.9663 cumulative IPC: 3.92538 (Simulation time: 0 hr 11 min 19 sec) 
Heartbeat CPU 0 instructions: 160000001 cycles: 40750379 heartbeat IPC: 3.94087 cumulative IPC: 3.92634 (Simulation time: 0 hr 12 min 17 sec) 
Heartbeat CPU 0 instructions: 170000001 cycles: 43302751 heartbeat IPC: 3.91792 cumulative IPC: 3.92585 (Simulation time: 0 hr 12 min 54 sec) 
Heartbeat CPU 0 instructions: 180000001 cycles: 45818799 heartbeat IPC: 3.97449 cumulative IPC: 3.92852 (Simulation time: 0 hr 13 min 42 sec) 
Heartbeat CPU 0 instructions: 190000003 cycles: 48355145 heartbeat IPC: 3.94268 cumulative IPC: 3.92926 (Simulation time: 0 hr 14 min 18 sec) 
Heartbeat CPU 0 instructions: 200000000 cycles: 50894820 heartbeat IPC: 3.93751 cumulative IPC: 3.92967 (Simulation time: 0 hr 14 min 56 sec) 
Heartbeat CPU 0 instructions: 210000001 cycles: 53437838 heartbeat IPC: 3.93234 cumulative IPC: 3.9298 (Simulation time: 0 hr 15 min 40 sec) 
Heartbeat CPU 0 instructions: 220000000 cycles: 55971676 heartbeat IPC: 3.94658 cumulative IPC: 3.93056 (Simulation time: 0 hr 16 min 18 sec) 
Heartbeat CPU 0 instructions: 230000000 cycles: 58521344 heartbeat IPC: 3.92208 cumulative IPC: 3.93019 (Simulation time: 0 hr 17 min 0 sec) 
Heartbeat CPU 0 instructions: 240000002 cycles: 61062022 heartbeat IPC: 3.93596 cumulative IPC: 3.93043 (Simulation time: 0 hr 17 min 54 sec) 
Heartbeat CPU 0 instructions: 250000002 cycles: 63601917 heartbeat IPC: 3.93717 cumulative IPC: 3.9307 (Simulation time: 0 hr 18 min 39 sec) 
Heartbeat CPU 0 instructions: 260000002 cycles: 66126659 heartbeat IPC: 3.9608 cumulative IPC: 3.93185 (Simulation time: 0 hr 19 min 30 sec) 
Heartbeat CPU 0 instructions: 270000002 cycles: 68673957 heartbeat IPC: 3.92573 cumulative IPC: 3.93162 (Simulation time: 0 hr 20 min 18 sec) 
Heartbeat CPU 0 instructions: 280000000 cycles: 71197685 heartbeat IPC: 3.96239 cumulative IPC: 3.93271 (Simulation time: 0 hr 20 min 58 sec) 
Heartbeat CPU 0 instructions: 290000004 cycles: 73746640 heartbeat IPC: 3.92318 cumulative IPC: 3.93238 (Simulation time: 0 hr 21 min 33 sec) 
Heartbeat CPU 0 instructions: 300000003 cycles: 76296341 heartbeat IPC: 3.92203 cumulative IPC: 3.93204 (Simulation time: 0 hr 22 min 10 sec) 
Heartbeat CPU 0 instructions: 310000000 cycles: 78820966 heartbeat IPC: 3.96098 cumulative IPC: 3.93296 (Simulation time: 0 hr 22 min 45 sec) 
Heartbeat CPU 0 instructions: 320000001 cycles: 81366503 heartbeat IPC: 3.92844 cumulative IPC: 3.93282 (Simulation time: 0 hr 23 min 31 sec) 
Heartbeat CPU 0 instructions: 330000001 cycles: 83893301 heartbeat IPC: 3.95758 cumulative IPC: 3.93357 (Simulation time: 0 hr 24 min 22 sec) 
Heartbeat CPU 0 instructions: 340000002 cycles: 86430736 heartbeat IPC: 3.94099 cumulative IPC: 3.93379 (Simulation time: 0 hr 25 min 3 sec) 
Heartbeat CPU 0 instructions: 350000000 cycles: 88991257 heartbeat IPC: 3.90545 cumulative IPC: 3.93297 (Simulation time: 0 hr 25 min 39 sec) 
Heartbeat CPU 0 instructions: 360000001 cycles: 91526649 heartbeat IPC: 3.94416 cumulative IPC: 3.93328 (Simulation time: 0 hr 26 min 15 sec) 
Heartbeat CPU 0 instructions: 370000002 cycles: 94067311 heartbeat IPC: 3.93598 cumulative IPC: 3.93335 (Simulation time: 0 hr 26 min 49 sec) 
Heartbeat CPU 0 instructions: 380000001 cycles: 96654912 heartbeat IPC: 3.86458 cumulative IPC: 3.93151 (Simulation time: 0 hr 27 min 22 sec) 
Heartbeat CPU 0 instructions: 390000001 cycles: 99204207 heartbeat IPC: 3.92265 cumulative IPC: 3.93128 (Simulation time: 0 hr 27 min 54 sec) 
Heartbeat CPU 0 instructions: 400000000 cycles: 101725962 heartbeat IPC: 3.96549 cumulative IPC: 3.93213 (Simulation time: 0 hr 28 min 28 sec) 
Heartbeat CPU 0 instructions: 410000003 cycles: 104273373 heartbeat IPC: 3.92556 cumulative IPC: 3.93197 (Simulation time: 0 hr 29 min 5 sec) 
Heartbeat CPU 0 instructions: 420000000 cycles: 106814713 heartbeat IPC: 3.93493 cumulative IPC: 3.93204 (Simulation time: 0 hr 29 min 58 sec) 
Heartbeat CPU 0 instructions: 430000002 cycles: 109360199 heartbeat IPC: 3.92852 cumulative IPC: 3.93196 (Simulation time: 0 hr 30 min 56 sec) 
Heartbeat CPU 0 instructions: 440000002 cycles: 111887215 heartbeat IPC: 3.95724 cumulative IPC: 3.93253 (Simulation time: 0 hr 31 min 53 sec) 
Heartbeat CPU 0 instructions: 450000001 cycles: 114424855 heartbeat IPC: 3.94067 cumulative IPC: 3.93271 (Simulation time: 0 hr 32 min 51 sec) 
Heartbeat CPU 0 instructions: 460000000 cycles: 116954812 heartbeat IPC: 3.95264 cumulative IPC: 3.93314 (Simulation time: 0 hr 33 min 42 sec) 
Heartbeat CPU 0 instructions: 470000001 cycles: 119491226 heartbeat IPC: 3.94257 cumulative IPC: 3.93334 (Simulation time: 0 hr 34 min 37 sec) 
Heartbeat CPU 0 instructions: 480000003 cycles: 122015985 heartbeat IPC: 3.96077 cumulative IPC: 3.93391 (Simulation time: 0 hr 35 min 29 sec) 
Heartbeat CPU 0 instructions: 490000002 cycles: 124548784 heartbeat IPC: 3.9482 cumulative IPC: 3.9342 (Simulation time: 0 hr 36 min 7 sec) 
Heartbeat CPU 0 instructions: 500000000 cycles: 127084950 heartbeat IPC: 3.94296 cumulative IPC: 3.93438 (Simulation time: 0 hr 36 min 53 sec) 

Warmup complete CPU 0 instructions: 500000004 cycles: 127084951 (Simulation time: 0 hr 36 min 53 sec) 

Heartbeat CPU 0 instructions: 510000000 cycles: 139075996 heartbeat IPC: 0.833956 cumulative IPC: 0.833955 (Simulation time: 0 hr 37 min 36 sec) 
Heartbeat CPU 0 instructions: 520000002 cycles: 150622995 heartbeat IPC: 0.866026 cumulative IPC: 0.849688 (Simulation time: 0 hr 38 min 26 sec) 
Heartbeat CPU 0 instructions: 530000002 cycles: 162040382 heartbeat IPC: 0.875857 cumulative IPC: 0.858236 (Simulation time: 0 hr 39 min 37 sec) 
Heartbeat CPU 0 instructions: 540000001 cycles: 173667900 heartbeat IPC: 0.860029 cumulative IPC: 0.858683 (Simulation time: 0 hr 40 min 42 sec) 
Heartbeat CPU 0 instructions: 550000001 cycles: 185291851 heartbeat IPC: 0.860293 cumulative IPC: 0.859005 (Simulation time: 0 hr 41 min 35 sec) 
Heartbeat CPU 0 instructions: 560000001 cycles: 195515262 heartbeat IPC: 0.978147 cumulative IPC: 0.876804 (Simulation time: 0 hr 42 min 17 sec) 
Heartbeat CPU 0 instructions: 570000001 cycles: 206494163 heartbeat IPC: 0.910838 cumulative IPC: 0.88151 (Simulation time: 0 hr 43 min 13 sec) 
Heartbeat CPU 0 instructions: 580000000 cycles: 218308041 heartbeat IPC: 0.846462 cumulative IPC: 0.876971 (Simulation time: 0 hr 44 min 10 sec) 
Heartbeat CPU 0 instructions: 590000000 cycles: 230302749 heartbeat IPC: 0.833701 cumulative IPC: 0.871943 (Simulation time: 0 hr 45 min 4 sec) 
Heartbeat CPU 0 instructions: 600000002 cycles: 242430578 heartbeat IPC: 0.82455 cumulative IPC: 0.86696 (Simulation time: 0 hr 45 min 48 sec) 
Heartbeat CPU 0 instructions: 610000004 cycles: 254231157 heartbeat IPC: 0.847416 cumulative IPC: 0.865146 (Simulation time: 0 hr 46 min 46 sec) 
Heartbeat CPU 0 instructions: 620000003 cycles: 266999150 heartbeat IPC: 0.783208 cumulative IPC: 0.857668 (Simulation time: 0 hr 47 min 32 sec) 
Heartbeat CPU 0 instructions: 630000001 cycles: 278353576 heartbeat IPC: 0.880714 cumulative IPC: 0.859398 (Simulation time: 0 hr 48 min 33 sec) 
Heartbeat CPU 0 instructions: 640000001 cycles: 290038851 heartbeat IPC: 0.855778 cumulative IPC: 0.859139 (Simulation time: 0 hr 49 min 22 sec) 
Heartbeat CPU 0 instructions: 650000001 cycles: 301804561 heartbeat IPC: 0.849927 cumulative IPC: 0.858518 (Simulation time: 0 hr 50 min 9 sec) 
Heartbeat CPU 0 instructions: 660000000 cycles: 314392847 heartbeat IPC: 0.794389 cumulative IPC: 0.854208 (Simulation time: 0 hr 51 min 9 sec) 
Heartbeat CPU 0 instructions: 670000001 cycles: 325528929 heartbeat IPC: 0.897982 cumulative IPC: 0.856665 (Simulation time: 0 hr 51 min 54 sec) 
Heartbeat CPU 0 instructions: 680000002 cycles: 336793776 heartbeat IPC: 0.887717 cumulative IPC: 0.858333 (Simulation time: 0 hr 52 min 51 sec) 
Heartbeat CPU 0 instructions: 690000002 cycles: 348758573 heartbeat IPC: 0.835785 cumulative IPC: 0.857116 (Simulation time: 0 hr 54 min 7 sec) 
Heartbeat CPU 0 instructions: 700000001 cycles: 360442813 heartbeat IPC: 0.855854 cumulative IPC: 0.857053 (Simulation time: 0 hr 55 min 6 sec) 
Heartbeat CPU 0 instructions: 710000001 cycles: 372412725 heartbeat IPC: 0.835428 cumulative IPC: 0.855998 (Simulation time: 0 hr 56 min 9 sec) 
Heartbeat CPU 0 instructions: 720000002 cycles: 384308380 heartbeat IPC: 0.840643 cumulative IPC: 0.855288 (Simulation time: 0 hr 57 min 6 sec) 
Heartbeat CPU 0 instructions: 730000000 cycles: 396382201 heartbeat IPC: 0.828238 cumulative IPC: 0.854075 (Simulation time: 0 hr 58 min 8 sec) 
Heartbeat CPU 0 instructions: 740000002 cycles: 408667422 heartbeat IPC: 0.813986 cumulative IPC: 0.852326 (Simulation time: 0 hr 59 min 1 sec) 
Heartbeat CPU 0 instructions: 750000000 cycles: 421260111 heartbeat IPC: 0.794111 cumulative IPC: 0.849834 (Simulation time: 1 hr 0 min 13 sec) 
Heartbeat CPU 0 instructions: 760000001 cycles: 432171808 heartbeat IPC: 0.916448 cumulative IPC: 0.852216 (Simulation time: 1 hr 1 min 25 sec) 
Heartbeat CPU 0 instructions: 770000001 cycles: 443494151 heartbeat IPC: 0.883209 cumulative IPC: 0.853325 (Simulation time: 1 hr 2 min 17 sec) 
Heartbeat CPU 0 instructions: 780000000 cycles: 455043797 heartbeat IPC: 0.865827 cumulative IPC: 0.853766 (Simulation time: 1 hr 3 min 36 sec) 
Heartbeat CPU 0 instructions: 790000000 cycles: 468258508 heartbeat IPC: 0.756732 cumulative IPC: 0.850007 (Simulation time: 1 hr 4 min 37 sec) 
Heartbeat CPU 0 instructions: 800000002 cycles: 479584320 heartbeat IPC: 0.882939 cumulative IPC: 0.851065 (Simulation time: 1 hr 5 min 20 sec) 
Heartbeat CPU 0 instructions: 810000002 cycles: 490381086 heartbeat IPC: 0.926203 cumulative IPC: 0.853298 (Simulation time: 1 hr 6 min 2 sec) 
Heartbeat CPU 0 instructions: 820000004 cycles: 500795027 heartbeat IPC: 0.960251 cumulative IPC: 0.856279 (Simulation time: 1 hr 6 min 43 sec) 
Heartbeat CPU 0 instructions: 830000001 cycles: 511939080 heartbeat IPC: 0.897339 cumulative IPC: 0.857468 (Simulation time: 1 hr 7 min 31 sec) 
Heartbeat CPU 0 instructions: 840000001 cycles: 522496799 heartbeat IPC: 0.947174 cumulative IPC: 0.859863 (Simulation time: 1 hr 8 min 35 sec) 
Heartbeat CPU 0 instructions: 850000001 cycles: 533215947 heartbeat IPC: 0.93291 cumulative IPC: 0.861791 (Simulation time: 1 hr 9 min 23 sec) 
Heartbeat CPU 0 instructions: 860000000 cycles: 543221154 heartbeat IPC: 0.999479 cumulative IPC: 0.865101 (Simulation time: 1 hr 10 min 4 sec) 
Heartbeat CPU 0 instructions: 870000001 cycles: 554443019 heartbeat IPC: 0.891118 cumulative IPC: 0.865785 (Simulation time: 1 hr 10 min 48 sec) 
Heartbeat CPU 0 instructions: 880000003 cycles: 564447800 heartbeat IPC: 0.999522 cumulative IPC: 0.868844 (Simulation time: 1 hr 11 min 30 sec) 
Heartbeat CPU 0 instructions: 890000000 cycles: 574795852 heartbeat IPC: 0.966365 cumulative IPC: 0.871098 (Simulation time: 1 hr 12 min 22 sec) 
Heartbeat CPU 0 instructions: 900000002 cycles: 585074801 heartbeat IPC: 0.972862 cumulative IPC: 0.873382 (Simulation time: 1 hr 13 min 28 sec) 
Heartbeat CPU 0 instructions: 910000003 cycles: 595060379 heartbeat IPC: 1.00144 cumulative IPC: 0.876114 (Simulation time: 1 hr 14 min 30 sec) 
Heartbeat CPU 0 instructions: 920000000 cycles: 605805411 heartbeat IPC: 0.930662 cumulative IPC: 0.877339 (Simulation time: 1 hr 15 min 32 sec) 
Heartbeat CPU 0 instructions: 930000000 cycles: 616844038 heartbeat IPC: 0.90591 cumulative IPC: 0.877983 (Simulation time: 1 hr 16 min 15 sec) 
Heartbeat CPU 0 instructions: 940000001 cycles: 627769549 heartbeat IPC: 0.915289 cumulative IPC: 0.878797 (Simulation time: 1 hr 16 min 55 sec) 
Heartbeat CPU 0 instructions: 950000000 cycles: 637762025 heartbeat IPC: 1.00075 cumulative IPC: 0.881183 (Simulation time: 1 hr 17 min 36 sec) 
Heartbeat CPU 0 instructions: 960000001 cycles: 649128367 heartbeat IPC: 0.879791 cumulative IPC: 0.881153 (Simulation time: 1 hr 18 min 20 sec) 
Heartbeat CPU 0 instructions: 970000001 cycles: 660224028 heartbeat IPC: 0.901253 cumulative IPC: 0.881571 (Simulation time: 1 hr 19 min 2 sec) 
Heartbeat CPU 0 instructions: 980000001 cycles: 670030219 heartbeat IPC: 1.01976 cumulative IPC: 0.884067 (Simulation time: 1 hr 19 min 41 sec) 
Heartbeat CPU 0 instructions: 990000001 cycles: 681001221 heartbeat IPC: 0.911494 cumulative IPC: 0.88461 (Simulation time: 1 hr 20 min 24 sec) 
Heartbeat CPU 0 instructions: 1000000000 cycles: 691064521 heartbeat IPC: 0.99371 cumulative IPC: 0.886557 (Simulation time: 1 hr 21 min 5 sec) 
Heartbeat CPU 0 instructions: 1010000004 cycles: 700408897 heartbeat IPC: 1.07016 cumulative IPC: 0.889549 (Simulation time: 1 hr 21 min 47 sec) 
Heartbeat CPU 0 instructions: 1020000001 cycles: 710602513 heartbeat IPC: 0.981006 cumulative IPC: 0.891147 (Simulation time: 1 hr 22 min 53 sec) 
Heartbeat CPU 0 instructions: 1030000001 cycles: 720646832 heartbeat IPC: 0.995588 cumulative IPC: 0.892914 (Simulation time: 1 hr 24 min 4 sec) 
Heartbeat CPU 0 instructions: 1040000000 cycles: 730963820 heartbeat IPC: 0.969275 cumulative IPC: 0.894219 (Simulation time: 1 hr 25 min 18 sec) 
Heartbeat CPU 0 instructions: 1050000001 cycles: 741037409 heartbeat IPC: 0.992695 cumulative IPC: 0.895835 (Simulation time: 1 hr 26 min 31 sec) 
Heartbeat CPU 0 instructions: 1060000001 cycles: 751290247 heartbeat IPC: 0.97534 cumulative IPC: 0.897141 (Simulation time: 1 hr 27 min 46 sec) 
Heartbeat CPU 0 instructions: 1070000001 cycles: 761348926 heartbeat IPC: 0.994166 cumulative IPC: 0.898679 (Simulation time: 1 hr 28 min 29 sec) 
Heartbeat CPU 0 instructions: 1080000004 cycles: 771549223 heartbeat IPC: 0.980364 cumulative IPC: 0.899972 (Simulation time: 1 hr 29 min 10 sec) 
Heartbeat CPU 0 instructions: 1090000000 cycles: 782308404 heartbeat IPC: 0.929438 cumulative IPC: 0.900456 (Simulation time: 1 hr 29 min 52 sec) 
Heartbeat CPU 0 instructions: 1100000000 cycles: 793216392 heartbeat IPC: 0.916759 cumulative IPC: 0.900723 (Simulation time: 1 hr 30 min 33 sec) 
Heartbeat CPU 0 instructions: 1110000004 cycles: 803975843 heartbeat IPC: 0.929416 cumulative IPC: 0.901179 (Simulation time: 1 hr 31 min 14 sec) 
Heartbeat CPU 0 instructions: 1120000000 cycles: 814627572 heartbeat IPC: 0.938814 cumulative IPC: 0.901762 (Simulation time: 1 hr 32 min 0 sec) 
Heartbeat CPU 0 instructions: 1130000002 cycles: 825164419 heartbeat IPC: 0.949051 cumulative IPC: 0.902476 (Simulation time: 1 hr 33 min 8 sec) 
Heartbeat CPU 0 instructions: 1140000003 cycles: 836084674 heartbeat IPC: 0.91573 cumulative IPC: 0.90268 (Simulation time: 1 hr 34 min 22 sec) 
Heartbeat CPU 0 instructions: 1150000000 cycles: 847015038 heartbeat IPC: 0.914882 cumulative IPC: 0.902865 (Simulation time: 1 hr 35 min 16 sec) 
Heartbeat CPU 0 instructions: 1160000003 cycles: 857735297 heartbeat IPC: 0.932814 cumulative IPC: 0.903305 (Simulation time: 1 hr 36 min 30 sec) 
Heartbeat CPU 0 instructions: 1170000000 cycles: 868440029 heartbeat IPC: 0.934166 cumulative IPC: 0.90375 (Simulation time: 1 hr 37 min 43 sec) 
Heartbeat CPU 0 instructions: 1180000002 cycles: 879165877 heartbeat IPC: 0.932327 cumulative IPC: 0.904158 (Simulation time: 1 hr 38 min 56 sec) 
Heartbeat CPU 0 instructions: 1190000000 cycles: 890190484 heartbeat IPC: 0.907062 cumulative IPC: 0.9042 (Simulation time: 1 hr 40 min 9 sec) 
Heartbeat CPU 0 instructions: 1200000001 cycles: 901279536 heartbeat IPC: 0.90179 cumulative IPC: 0.904165 (Simulation time: 1 hr 41 min 23 sec) 
Heartbeat CPU 0 instructions: 1210000002 cycles: 912218522 heartbeat IPC: 0.914162 cumulative IPC: 0.904305 (Simulation time: 1 hr 42 min 37 sec) 
Heartbeat CPU 0 instructions: 1220000000 cycles: 922775470 heartbeat IPC: 0.947243 cumulative IPC: 0.904874 (Simulation time: 1 hr 43 min 21 sec) 
Heartbeat CPU 0 instructions: 1230000000 cycles: 933578602 heartbeat IPC: 0.925658 cumulative IPC: 0.905153 (Simulation time: 1 hr 44 min 6 sec) 
Heartbeat CPU 0 instructions: 1240000000 cycles: 944411999 heartbeat IPC: 0.923072 cumulative IPC: 0.90539 (Simulation time: 1 hr 44 min 49 sec) 
Heartbeat CPU 0 instructions: 1250000000 cycles: 954873434 heartbeat IPC: 0.955892 cumulative IPC: 0.906029 (Simulation time: 1 hr 45 min 31 sec) 
Heartbeat CPU 0 instructions: 1260000000 cycles: 965082539 heartbeat IPC: 0.979518 cumulative IPC: 0.906924 (Simulation time: 1 hr 46 min 12 sec) 
Heartbeat CPU 0 instructions: 1270000000 cycles: 975034505 heartbeat IPC: 1.00483 cumulative IPC: 0.908073 (Simulation time: 1 hr 46 min 53 sec) 
Heartbeat CPU 0 instructions: 1280000002 cycles: 985660200 heartbeat IPC: 0.941115 cumulative IPC: 0.908482 (Simulation time: 1 hr 47 min 35 sec) 
Heartbeat CPU 0 instructions: 1290000002 cycles: 996254647 heartbeat IPC: 0.943891 cumulative IPC: 0.908913 (Simulation time: 1 hr 48 min 17 sec) 
Heartbeat CPU 0 instructions: 1300000004 cycles: 1007155147 heartbeat IPC: 0.917389 cumulative IPC: 0.909018 (Simulation time: 1 hr 48 min 59 sec) 
Heartbeat CPU 0 instructions: 1310000002 cycles: 1017368312 heartbeat IPC: 0.979128 cumulative IPC: 0.909823 (Simulation time: 1 hr 49 min 40 sec) 
Heartbeat CPU 0 instructions: 1320000000 cycles: 1027675122 heartbeat IPC: 0.970232 cumulative IPC: 0.910514 (Simulation time: 1 hr 50 min 21 sec) 
Heartbeat CPU 0 instructions: 1330000002 cycles: 1038003624 heartbeat IPC: 0.968195 cumulative IPC: 0.911168 (Simulation time: 1 hr 51 min 2 sec) 
Heartbeat CPU 0 instructions: 1340000002 cycles: 1048536772 heartbeat IPC: 0.949384 cumulative IPC: 0.911605 (Simulation time: 1 hr 51 min 55 sec) 
Heartbeat CPU 0 instructions: 1350000002 cycles: 1058623022 heartbeat IPC: 0.991449 cumulative IPC: 0.912469 (Simulation time: 1 hr 52 min 56 sec) 
Heartbeat CPU 0 instructions: 1360000000 cycles: 1068673775 heartbeat IPC: 0.99495 cumulative IPC: 0.91335 (Simulation time: 1 hr 54 min 8 sec) 
Heartbeat CPU 0 instructions: 1370000004 cycles: 1079311298 heartbeat IPC: 0.940069 cumulative IPC: 0.913648 (Simulation time: 1 hr 54 min 57 sec) 
Heartbeat CPU 0 instructions: 1380000001 cycles: 1089276934 heartbeat IPC: 1.00345 cumulative IPC: 0.914578 (Simulation time: 1 hr 55 min 38 sec) 
Heartbeat CPU 0 instructions: 1390000001 cycles: 1099239994 heartbeat IPC: 1.00371 cumulative IPC: 0.915492 (Simulation time: 1 hr 56 min 17 sec) 
Heartbeat CPU 0 instructions: 1400000001 cycles: 1109830897 heartbeat IPC: 0.944207 cumulative IPC: 0.915801 (Simulation time: 1 hr 56 min 58 sec) 
Heartbeat CPU 0 instructions: 1410000004 cycles: 1119950782 heartbeat IPC: 0.988154 cumulative IPC: 0.916539 (Simulation time: 1 hr 57 min 40 sec) 
Heartbeat CPU 0 instructions: 1420000000 cycles: 1130205262 heartbeat IPC: 0.975183 cumulative IPC: 0.917138 (Simulation time: 1 hr 58 min 19 sec) 
Heartbeat CPU 0 instructions: 1430000001 cycles: 1140202531 heartbeat IPC: 1.00027 cumulative IPC: 0.917959 (Simulation time: 1 hr 59 min 10 sec) 
Heartbeat CPU 0 instructions: 1440000000 cycles: 1150596844 heartbeat IPC: 0.962064 cumulative IPC: 0.918407 (Simulation time: 2 hr 0 min 10 sec) 
Heartbeat CPU 0 instructions: 1450000000 cycles: 1160011555 heartbeat IPC: 1.06217 cumulative IPC: 0.919717 (Simulation time: 2 hr 1 min 0 sec) 
Heartbeat CPU 0 instructions: 1460000003 cycles: 1171674359 heartbeat IPC: 0.857427 cumulative IPC: 0.919021 (Simulation time: 2 hr 2 min 16 sec) 
Heartbeat CPU 0 instructions: 1470000001 cycles: 1182706745 heartbeat IPC: 0.906422 cumulative IPC: 0.91889 (Simulation time: 2 hr 3 min 33 sec) 
Heartbeat CPU 0 instructions: 1480000000 cycles: 1193135903 heartbeat IPC: 0.95885 cumulative IPC: 0.919281 (Simulation time: 2 hr 4 min 44 sec) 
Heartbeat CPU 0 instructions: 1490000000 cycles: 1203742781 heartbeat IPC: 0.942784 cumulative IPC: 0.919512 (Simulation time: 2 hr 5 min 52 sec) 
Heartbeat CPU 0 instructions: 1500000000 cycles: 1214738668 heartbeat IPC: 0.909431 cumulative IPC: 0.91941 (Simulation time: 2 hr 7 min 6 sec) 
Heartbeat CPU 0 instructions: 1510000003 cycles: 1225491006 heartbeat IPC: 0.930031 cumulative IPC: 0.919514 (Simulation time: 2 hr 8 min 20 sec) 
Heartbeat CPU 0 instructions: 1520000000 cycles: 1236512077 heartbeat IPC: 0.907353 cumulative IPC: 0.919393 (Simulation time: 2 hr 9 min 29 sec) 
Heartbeat CPU 0 instructions: 1530000002 cycles: 1247187546 heartbeat IPC: 0.936727 cumulative IPC: 0.919559 (Simulation time: 2 hr 10 min 39 sec) 
Heartbeat CPU 0 instructions: 1540000004 cycles: 1257773312 heartbeat IPC: 0.944665 cumulative IPC: 0.919794 (Simulation time: 2 hr 11 min 52 sec) 
Heartbeat CPU 0 instructions: 1550000001 cycles: 1268401932 heartbeat IPC: 0.940856 cumulative IPC: 0.91999 (Simulation time: 2 hr 12 min 34 sec) 
Heartbeat CPU 0 instructions: 1560000001 cycles: 1278850985 heartbeat IPC: 0.957025 cumulative IPC: 0.920326 (Simulation time: 2 hr 13 min 33 sec) 
Heartbeat CPU 0 instructions: 1570000003 cycles: 1289367630 heartbeat IPC: 0.950874 cumulative IPC: 0.920602 (Simulation time: 2 hr 14 min 19 sec) 
Heartbeat CPU 0 instructions: 1580000003 cycles: 1299563087 heartbeat IPC: 0.980829 cumulative IPC: 0.921126 (Simulation time: 2 hr 15 min 2 sec) 
Heartbeat CPU 0 instructions: 1590000003 cycles: 1310027850 heartbeat IPC: 0.955588 cumulative IPC: 0.921431 (Simulation time: 2 hr 15 min 46 sec) 
Heartbeat CPU 0 instructions: 1600000004 cycles: 1319803165 heartbeat IPC: 1.02298 cumulative IPC: 0.922263 (Simulation time: 2 hr 16 min 29 sec) 
Heartbeat CPU 0 instructions: 1610000004 cycles: 1330714425 heartbeat IPC: 0.916484 cumulative IPC: 0.922211 (Simulation time: 2 hr 17 min 13 sec) 
Heartbeat CPU 0 instructions: 1620000001 cycles: 1340716736 heartbeat IPC: 0.999769 cumulative IPC: 0.92285 (Simulation time: 2 hr 17 min 56 sec) 
Heartbeat CPU 0 instructions: 1630000003 cycles: 1351520011 heartbeat IPC: 0.925645 cumulative IPC: 0.922875 (Simulation time: 2 hr 18 min 41 sec) 
Heartbeat CPU 0 instructions: 1640000001 cycles: 1362184904 heartbeat IPC: 0.937656 cumulative IPC: 0.923002 (Simulation time: 2 hr 19 min 23 sec) 
Heartbeat CPU 0 instructions: 1650000002 cycles: 1372866291 heartbeat IPC: 0.936208 cumulative IPC: 0.923115 (Simulation time: 2 hr 20 min 8 sec) 
Heartbeat CPU 0 instructions: 1660000003 cycles: 1383251169 heartbeat IPC: 0.962939 cumulative IPC: 0.923445 (Simulation time: 2 hr 20 min 50 sec) 
Heartbeat CPU 0 instructions: 1670000002 cycles: 1394069489 heartbeat IPC: 0.924358 cumulative IPC: 0.923452 (Simulation time: 2 hr 21 min 31 sec) 
Heartbeat CPU 0 instructions: 1680000001 cycles: 1404739066 heartbeat IPC: 0.937244 cumulative IPC: 0.923568 (Simulation time: 2 hr 22 min 13 sec) 
Heartbeat CPU 0 instructions: 1690000000 cycles: 1415445732 heartbeat IPC: 0.933997 cumulative IPC: 0.923654 (Simulation time: 2 hr 22 min 55 sec) 
Heartbeat CPU 0 instructions: 1700000001 cycles: 1426142629 heartbeat IPC: 0.934851 cumulative IPC: 0.923747 (Simulation time: 2 hr 23 min 36 sec) 
Heartbeat CPU 0 instructions: 1710000002 cycles: 1436636693 heartbeat IPC: 0.95292 cumulative IPC: 0.92398 (Simulation time: 2 hr 24 min 17 sec) 
Heartbeat CPU 0 instructions: 1720000003 cycles: 1447090653 heartbeat IPC: 0.956575 cumulative IPC: 0.924238 (Simulation time: 2 hr 24 min 59 sec) 
Heartbeat CPU 0 instructions: 1730000000 cycles: 1458018276 heartbeat IPC: 0.915112 cumulative IPC: 0.924164 (Simulation time: 2 hr 25 min 41 sec) 
Heartbeat CPU 0 instructions: 1740000000 cycles: 1468950867 heartbeat IPC: 0.914696 cumulative IPC: 0.924086 (Simulation time: 2 hr 26 min 22 sec) 
Heartbeat CPU 0 instructions: 1750000000 cycles: 1479772570 heartbeat IPC: 0.924069 cumulative IPC: 0.924086 (Simulation time: 2 hr 27 min 4 sec) 
Heartbeat CPU 0 instructions: 1760000003 cycles: 1490893724 heartbeat IPC: 0.899188 cumulative IPC: 0.923883 (Simulation time: 2 hr 27 min 46 sec) 
Heartbeat CPU 0 instructions: 1770000001 cycles: 1501631969 heartbeat IPC: 0.931251 cumulative IPC: 0.923941 (Simulation time: 2 hr 28 min 28 sec) 
Heartbeat CPU 0 instructions: 1780000002 cycles: 1512385632 heartbeat IPC: 0.929916 cumulative IPC: 0.923987 (Simulation time: 2 hr 29 min 13 sec) 
Heartbeat CPU 0 instructions: 1790000004 cycles: 1524388796 heartbeat IPC: 0.833114 cumulative IPC: 0.923207 (Simulation time: 2 hr 30 min 4 sec) 
Heartbeat CPU 0 instructions: 1800000000 cycles: 1535723837 heartbeat IPC: 0.88222 cumulative IPC: 0.922877 (Simulation time: 2 hr 31 min 17 sec) 
Heartbeat CPU 0 instructions: 1810000002 cycles: 1546884188 heartbeat IPC: 0.896029 cumulative IPC: 0.922666 (Simulation time: 2 hr 32 min 18 sec) 
Heartbeat CPU 0 instructions: 1820000001 cycles: 1557858865 heartbeat IPC: 0.911188 cumulative IPC: 0.922578 (Simulation time: 2 hr 32 min 59 sec) 
Heartbeat CPU 0 instructions: 1830000000 cycles: 1568960545 heartbeat IPC: 0.900764 cumulative IPC: 0.92241 (Simulation time: 2 hr 33 min 42 sec) 
Heartbeat CPU 0 instructions: 1840000003 cycles: 1579561341 heartbeat IPC: 0.943326 cumulative IPC: 0.922562 (Simulation time: 2 hr 34 min 23 sec) 
Heartbeat CPU 0 instructions: 1850000002 cycles: 1590244063 heartbeat IPC: 0.936091 cumulative IPC: 0.922661 (Simulation time: 2 hr 35 min 4 sec) 
Heartbeat CPU 0 instructions: 1860000000 cycles: 1601516597 heartbeat IPC: 0.887112 cumulative IPC: 0.922389 (Simulation time: 2 hr 35 min 46 sec) 
Heartbeat CPU 0 instructions: 1870000000 cycles: 1612672462 heartbeat IPC: 0.896389 cumulative IPC: 0.922194 (Simulation time: 2 hr 36 min 27 sec) 
Heartbeat CPU 0 instructions: 1880000000 cycles: 1623513941 heartbeat IPC: 0.922383 cumulative IPC: 0.922195 (Simulation time: 2 hr 37 min 9 sec) 
Heartbeat CPU 0 instructions: 1890000000 cycles: 1634584640 heartbeat IPC: 0.903285 cumulative IPC: 0.922057 (Simulation time: 2 hr 37 min 50 sec) 
Heartbeat CPU 0 instructions: 1900000002 cycles: 1645555982 heartbeat IPC: 0.911466 cumulative IPC: 0.92198 (Simulation time: 2 hr 38 min 33 sec) 
Heartbeat CPU 0 instructions: 1910000000 cycles: 1656516967 heartbeat IPC: 0.912327 cumulative IPC: 0.921911 (Simulation time: 2 hr 39 min 21 sec) 
Heartbeat CPU 0 instructions: 1920000004 cycles: 1667705547 heartbeat IPC: 0.893769 cumulative IPC: 0.921706 (Simulation time: 2 hr 40 min 2 sec) 
Heartbeat CPU 0 instructions: 1930000000 cycles: 1678537556 heartbeat IPC: 0.923189 cumulative IPC: 0.921717 (Simulation time: 2 hr 40 min 44 sec) 
Heartbeat CPU 0 instructions: 1940000004 cycles: 1689402133 heartbeat IPC: 0.920423 cumulative IPC: 0.921708 (Simulation time: 2 hr 41 min 25 sec) 
Heartbeat CPU 0 instructions: 1950000004 cycles: 1700325126 heartbeat IPC: 0.9155 cumulative IPC: 0.921665 (Simulation time: 2 hr 42 min 5 sec) 
Heartbeat CPU 0 instructions: 1960000002 cycles: 1711136455 heartbeat IPC: 0.924955 cumulative IPC: 0.921687 (Simulation time: 2 hr 42 min 47 sec) 
Heartbeat CPU 0 instructions: 1970000001 cycles: 1721713129 heartbeat IPC: 0.945477 cumulative IPC: 0.921845 (Simulation time: 2 hr 43 min 28 sec) 
Heartbeat CPU 0 instructions: 1980000003 cycles: 1733160251 heartbeat IPC: 0.873582 cumulative IPC: 0.921501 (Simulation time: 2 hr 44 min 10 sec) 
Heartbeat CPU 0 instructions: 1990000002 cycles: 1743801289 heartbeat IPC: 0.939758 cumulative IPC: 0.921621 (Simulation time: 2 hr 44 min 52 sec) 
*** Reached end of trace: traces/602.gcc_s-2375B.champsimtrace.xz
Heartbeat CPU 0 instructions: 2000000002 cycles: 1753929639 heartbeat IPC: 0.987328 cumulative IPC: 0.92203 (Simulation time: 2 hr 45 min 32 sec) 
Finished CPU 0 instructions: 1500000003 cycles: 1626844689 cumulative IPC: 0.92203 (Simulation time: 2 hr 45 min 32 sec) 

ChampSim completed all CPUs

Region of Interest Statistics

CPU 0 cumulative IPC: 0.92203 instructions: 1500000003 cycles: 1626844689
cpu0_DTLB TOTAL     ACCESS:  298468598  HIT:  292634851  MISS:    5833747
cpu0_DTLB LOAD      ACCESS:  207621220  HIT:  202293746  MISS:    5327474
cpu0_DTLB RFO       ACCESS:   90847378  HIT:   90341105  MISS:     506273
cpu0_DTLB PREFETCH  ACCESS:          0  HIT:          0  MISS:          0
cpu0_DTLB WRITEBACK ACCESS:          0  HIT:          0  MISS:          0
cpu0_DTLB TRANSLATION ACCESS:          0  HIT:          0  MISS:          0
cpu0_DTLB PREFETCH  REQUESTED:          0  ISSUED:          0  USEFUL:          0  USELESS:          0
cpu0_DTLB AVERAGE MISS LATENCY: 10.131 cycles
cpu0_ITLB TOTAL     ACCESS:  127542520  HIT:  126569023  MISS:     973497
cpu0_ITLB LOAD      ACCESS:  127542520  HIT:  126569023  MISS:     973497
cpu0_ITLB RFO       ACCESS:          0  HIT:          0  MISS:          0
cpu0_ITLB PREFETCH  ACCESS:          0  HIT:          0  MISS:          0
cpu0_ITLB WRITEBACK ACCESS:          0  HIT:          0  MISS:          0
cpu0_ITLB TRANSLATION ACCESS:          0  HIT:          0  MISS:          0
cpu0_ITLB PREFETCH  REQUESTED:          0  ISSUED:          0  USEFUL:          0  USELESS:          0
cpu0_ITLB AVERAGE MISS LATENCY: 9.67698 cycles
cpu0_L1I TOTAL     ACCESS:  173120268  HIT:  166244541  MISS:    6875727
cpu0_L1I LOAD      ACCESS:  173120268  HIT:  166244541  MISS:    6875727
cpu0_L1I RFO       ACCESS:          0  HIT:          0  MISS:          0
cpu0_L1I PREFETCH  ACCESS:          0  HIT:          0  MISS:          0
cpu0_L1I WRITEBACK ACCESS:          0  HIT:          0  MISS:          0
cpu0_L1I TRANSLATION ACCESS:          0  HIT:          0  MISS:          0
cpu0_L1I PREFETCH  REQUESTED:          0  ISSUED:          0  USEFUL:          0  USELESS:          0
cpu0_L1I AVERAGE MISS LATENCY: 22.1958 cycles
cpu0_STLB TOTAL     ACCESS:    6807244  HIT:    6513561  MISS:     293683
cpu0_STLB LOAD      ACCESS:    6300971  HIT:    6062965  MISS:     238006
cpu0_STLB RFO       ACCESS:     506273  HIT:     450596  MISS:      55677
cpu0_STLB PREFETCH  ACCESS:          0  HIT:          0  MISS:          0
cpu0_STLB WRITEBACK ACCESS:          0  HIT:          0  MISS:          0
cpu0_STLB TRANSLATION ACCESS:          0  HIT:          0  MISS:          0
cpu0_STLB PREFETCH  REQUESTED:          0  ISSUED:          0  USEFUL:          0  USELESS:          0
cpu0_STLB AVERAGE MISS LATENCY: 24.5002 cycles
cpu0_L1D TOTAL     ACCESS:  420870810  HIT:  410979585  MISS:    9891225
cpu0_L1D LOAD      ACCESS:  218689054  HIT:  210566728  MISS:    8122326
cpu0_L1D RFO       ACCESS:  201890358  HIT:  200203430  MISS:    1686928
cpu0_L1D PREFETCH  ACCESS:          0  HIT:          0  MISS:          0
cpu0_L1D WRITEBACK ACCESS:          0  HIT:          0  MISS:          0
cpu0_L1D TRANSLATION ACCESS:     291398  HIT:     209427  MISS:      81971
cpu0_L1D PREFETCH  REQUESTED:          0  ISSUED:          0  USEFUL:          0  USELESS:          0
cpu0_L1D AVERAGE MISS LATENCY: 25.7128 cycles
cpu0_L2C TOTAL     ACCESS:   19835634  HIT:   16118890  MISS:    3716744
cpu0_L2C LOAD      ACCESS:   14997780  HIT:   12080082  MISS:    2917698
cpu0_L2C RFO       ACCESS:    1686899  HIT:     918372  MISS:     768527
cpu0_L2C PREFETCH  ACCESS:          0  HIT:          0  MISS:          0
cpu0_L2C WRITEBACK ACCESS:    3068984  HIT:    3059493  MISS:       9491
cpu0_L2C TRANSLATION ACCESS:      81971  HIT:      60943  MISS:      21028
cpu0_L2C PREFETCH  REQUESTED:          0  ISSUED:          0  USEFUL:          0  USELESS:          0
cpu0_L2C AVERAGE MISS LATENCY: 59.7345 cycles
LLC TOTAL     ACCESS:    4836377  HIT:    4036124  MISS:     800253
LLC LOAD      ACCESS:    2917693  HIT:    2339801  MISS:     577892
LLC RFO       ACCESS:     768523  HIT:     553753  MISS:     214770
LLC PREFETCH  ACCESS:          0  HIT:          0  MISS:          0
LLC WRITEBACK ACCESS:    1129133  HIT:    1122957  MISS:       6176
LLC TRANSLATION ACCESS:      21028  HIT:      19613  MISS:       1415
LLC PREFETCH  REQUESTED:          0  ISSUED:          0  USEFUL:          0  USELESS:          0
LLC AVERAGE MISS LATENCY: 180.147 cycles
~~~~~~~~~~Reuse Distance Profiler output~~~~~~~~~~
0	154712288	16061616
1	38770000	13833344
2	27080032	13143824
3	19180032	11237520
4	17322512	10950864
5	13976544	8620368
6	12584544	7897872
7	11183936	6999984
8	10310640	6878816
9	9765264	6554080
10	8593296	5660496
11	7548944	5068752
12	6666336	4584928
13	6142544	4206816
14	5597856	3847600
15	5300464	3789632
16	4557840	3104624
17	4482032	3141248
18	3897152	2695312
19	4160688	3078128
20	3864128	2836048
21	3367088	2410864
22	3262752	2352560
23	2795504	1980272
24	3006272	2288592
25	2682832	2023760
26	2637840	2022880
27	2541616	1965440
28	2231056	1688656
29	2241296	1735264
30	2238960	1753280
31	1996064	1506784
32	1766416	1313488
33	1710640	1272112
34	1548048	1157088
35	1552320	1177392
36	1425344	1067712
37	1358928	1025568
38	1332880	1012928
39	1456848	1119088
40	1271824	957248
41	1178176	874208
42	1121312	821760
43	1068128	788272
44	1017456	756368
45	988480	729472
46	1016848	771280
47	970896	725408
48	1142288	876016
49	1145344	914736
50	1058272	835104
51	945504	725920
52	919200	709616
53	1009168	817776
54	1080400	885040
55	1067440	840000
56	1063024	804576
57	948816	726368
58	1038560	839392
59	1006592	808096
60	846512	649232
61	808944	582048
62	814544	579664
63	791968	557872
64	1581408	1129072
66	1599568	1054160
68	1746720	1040032
70	1565040	951472
72	1425744	939648
74	1253168	891856
76	1313712	976784
78	1677856	1289968
80	1805728	1403792
82	1139664	855664
84	1038704	776976
86	971392	715408
88	901136	647376
90	862368	627744
92	865136	640352
94	895968	665408
96	859824	640640
98	769536	573472
100	747024	564992
102	703072	534048
104	708880	549312
106	700448	550848
108	690064	553360
110	644384	508416
112	675664	540784
114	640080	512224
116	647760	526080
118	588832	470896
120	521344	414112
122	515488	408096
124	497248	395616
126	495280	398128
128	981696	806656
132	888640	732032
136	815488	671504
140	780000	645472
144	754064	626480
148	699856	575680
152	690544	568160
156	684800	576016
160	655024	544544
164	614448	502496
168	610448	505056
172	599088	488752
176	624416	521696
180	554288	458352
184	562704	464176
188	542512	447824
192	534784	441328
196	528576	441632
200	507984	428736
204	474992	402064
208	459936	385088
212	449776	377056
216	436304	368496
220	429472	363296
224	417024	353104
228	412032	351200
232	403728	342048
236	389984	329552
240	377232	314464
244	391296	325376
248	374176	308224
252	353328	293552
256	658160	565184
264	602336	515840
272	572384	481568
280	557024	472048
288	541328	460288
296	528912	450416
304	522096	444960
312	497408	417776
320	504688	431104
328	490160	416256
336	501616	423616
344	466608	398208
352	450992	379648
360	470432	402992
368	445424	379088
376	464896	390944
384	455872	390688
392	422848	356976
400	422304	358464
408	418064	357648
416	416384	360480
424	390000	335600
432	371184	320064
440	377216	330896
448	388816	343136
456	351872	305584
464	347712	297824
472	360880	309088
480	335552	284480
488	324432	278096
496	325760	275568
504	307776	258304
512	608960	519168
528	582720	503072
544	574656	496560
560	543536	471760
576	517248	443600
592	489840	416752
608	478656	400288
624	449680	373488
640	423248	360128
656	400096	340896
672	380912	326608
688	402656	339424
704	408368	351536
720	397296	341200
736	368400	316384
752	361504	308976
768	338096	290864
784	334256	287984
800	321184	270800
816	303664	257488
832	290784	244448
848	287488	241296
864	281392	238000
880	276480	234720
896	275808	234016
912	281936	236384
928	268832	223504
944	254704	212704
960	269152	223360
976	270736	225408
992	254704	215728
1008	249168	207488
1024	478320	391760
1056	484928	391744
1088	428400	353248
1120	412720	336208
1152	441040	359904
1184	417248	338768
1216	390992	319840
1248	387296	327456
1280	376096	320720
1312	356288	305920
1344	334640	283584
1376	291648	244400
1408	294112	250960
1440	275744	232672
1472	264624	218864
1504	263072	215136
1536	275520	229456
1568	264832	213504
1600	272768	219568
1632	267968	218192
1664	266784	221392
1696	230416	189584
1728	212960	172864
1760	217424	175936
1792	217760	175568
1824	203088	167760
1856	191888	155472
1888	179872	148928
1920	178112	146032
1952	170448	142128
1984	164592	135664
2016	166704	138720
2048	344272	284368
2112	307968	253728
2176	289648	244512
2240	293760	251056
2304	281488	242176
2368	260512	220112
2432	253360	217744
2496	255408	221520
2560	237328	205248
2624	231872	201952
2688	228752	198848
2752	214816	184688
2816	200576	173616
2880	198832	172528
2944	198368	173648
3008	186576	162528
3072	178912	154032
3136	184752	160256
3200	182048	160448
3264	169872	147904
3328	168960	146560
3392	171952	151632
3456	163648	141904
3520	165888	142608
3584	169648	148512
3648	164064	146016
3712	151408	134896
3776	142208	128304
3840	141664	124320
3904	136656	121168
3968	128864	115552
4032	124656	111808
4096	240704	214736
4224	235600	211648
4352	225328	203008
4480	216560	194560
4608	203232	183104
4736	193104	175696
4864	186560	169792
4992	185472	168912
5120	177136	162384
5248	170256	155968
5376	173664	158304
5504	169856	155616
5632	166000	151632
5760	158016	144864
5888	152416	140560
6016	156000	144928
6144	151760	136368
6272	151712	135584
6400	159856	147504
6528	141104	129392
6656	129504	118640
6784	132560	121904
6912	125376	115568
7040	119040	106640
7168	117488	107296
7296	113568	106512
7424	132928	123456
7552	136384	125504
7680	120416	111488
7808	136848	128480
7936	202480	191008
8064	290080	271232
8192	329904	299200
8448	196080	178656
8704	205280	185424
8960	184944	169872
9216	193344	170992
9472	189120	168272
9728	175568	158496
9984	167680	153936
10240	159712	147648
10496	150176	138576
10752	155200	139552
11008	142992	129216
11264	137392	124896
11520	136976	125504
11776	125680	115264
12032	120000	111264
12288	121872	113296
12544	117616	109648
12800	114800	107232
13056	110352	102128
13312	101632	94448
13568	109072	101792
13824	103888	97344
14080	105296	98720
14336	106976	100048
14592	102640	95520
14848	107136	100016
15104	102352	95520
15360	91248	84496
15616	87200	80880
15872	87552	80256
16128	87392	80784
16384	168752	157168
16896	169440	157328
17408	156128	144624
17920	155568	144816
18432	142272	129456
18944	148176	132624
19456	141920	126848
19968	147120	135568
20480	143248	131888
20992	124336	114240
21504	122112	112320
22016	115056	106848
22528	116176	107840
23040	118016	108912
23552	114672	107008
24064	105072	97600
24576	105600	96800
25088	103248	95360
25600	102048	94688
26112	94560	86608
26624	90464	83584
27136	86832	80064
27648	82016	75488
28160	77488	70128
28672	80496	74112
29184	84928	77728
29696	83824	77680
30208	81952	76464
30720	80704	75376
31232	74960	69616
31744	80704	74992
32256	78784	73392
32768	140928	129168
33792	149248	137280
34816	141472	132176
35840	133904	124560
36864	118208	109536
37888	109920	100928
38912	110032	101296
39936	105728	96944
40960	108160	99520
41984	104240	95680
43008	95808	87680
44032	84176	77504
45056	93312	85856
46080	86480	79936
47104	85632	78736
48128	80192	73248
49152	73856	67952
50176	74336	68016
51200	75552	69984
52224	76048	70208
53248	68656	63200
54272	72080	66720
55296	68592	63104
56320	69664	64832
57344	66960	61712
58368	64768	59856
59392	64032	58752
60416	59152	54864
61440	60800	55472
62464	61056	55808
63488	61392	56944
64512	62448	57792
65536	117552	107904
67584	110064	101200
69632	101536	93264
71680	97616	88800
73728	94656	85552
75776	84848	77536
77824	80608	73648
79872	75856	68960
81920	79488	73392
83968	74016	67472
86016	72976	65744
88064	67664	61136
90112	67056	61296
92160	65952	59184
94208	67328	60624
96256	64224	58080
98304	63216	53904
100352	58432	51376
102400	61136	54224
104448	56720	49984
106496	53424	47344
108544	55136	48416
110592	64048	48176
112640	69248	50352
114688	59584	43280
116736	54320	41008
118784	52784	40176
120832	49920	41472
122880	49824	41968
124928	48736	42272
126976	48016	40400
129024	47648	39360
131072	96160	76128
135168	90736	72768
139264	79104	65744
143360	71536	62272
147456	72144	60576
151552	71600	57360
155648	72352	53840
159744	65344	54928
163840	61472	49904
167936	60992	49760
172032	58528	50688
176128	58144	50080
180224	61568	51424
184320	49248	41568
188416	51664	39968
192512	45776	38608
196608	50048	42768
200704	44640	36848
204800	48080	39744
208896	38704	32816
212992	43856	35472
217088	41744	32256
221184	36544	30272
225280	33328	27680
229376	36864	30768
233472	31536	26000
237568	30432	25072
241664	28448	22816
245760	30224	25600
249856	30400	25904
253952	26800	22016
258048	27072	21504
262144	49504	41728
270336	46416	38128
278528	47488	40624
286720	44272	37776
294912	40576	34080
303104	42384	36336
311296	46816	39648
319488	37040	31296
327680	35840	30720
335872	33472	28096
344064	44432	37296
352256	33152	28192
360448	31184	25920
368640	35808	31344
376832	33856	29328
385024	31520	25824
393216	31824	26304
401408	33392	28528
409600	27648	22416
417792	27520	22576
425984	26656	22400
434176	23904	19712
442368	24656	20688
450560	26048	21216
458752	22960	18896
466944	23936	20000
475136	28496	23856
483328	20512	16976
491520	20064	15584
499712	22576	17760
507904	18112	15024
516096	17200	14032
524288	41664	34032
540672	36544	28624
557056	33696	25952
573440	29152	21184
589824	25536	19648
606208	23200	17744
622592	22704	17104
638976	22832	16896
655360	22672	17952
671744	21280	15696
688128	21504	17264
704512	21808	16624
720896	20560	16128
737280	18416	13824
753664	17984	13424
770048	15056	11120
786432	16032	12032
802816	18096	14304
819200	17104	12848
835584	16304	11440
851968	14480	10800
868352	15328	10544
884736	13648	9616
901120	13584	10160
917504	14592	10096
933888	15696	11488
950272	17728	13440
966656	14416	9872
983040	14080	10000
999424	11472	8144
1015808	10896	7664
1032192	11008	7088
1048576	19600	12160
1081344	26992	19920
1114112	22064	14448
1146880	28976	21552
1179648	21856	13856
1212416	20880	12784
1245184	17584	11648
1277952	18576	13680
1310720	16640	12000
1343488	14288	9264
1376256	15776	10304
1409024	17392	12640
1441792	12032	7232
1474560	12608	7648
1507328	10912	6688
1540096	10496	6384
1572864	12224	8080
1605632	12720	7760
1638400	14016	8480
1671168	11312	7328
1703936	12304	8144
1736704	10592	6112
1769472	10112	6224
1802240	13360	9408
1835008	9024	5312
1867776	10848	5888
1900544	23872	7536
1933312	18448	6784
1966080	12784	6304
1998848	32320	7824
2031616	31984	21696
2064384	30288	23392
2097152	36352	25888
2162688	46304	36096
2228224	26816	12512
2293760	21744	12912
2359296	22064	14976
2424832	24880	16704
2490368	22304	8704
2555904	21616	9856
2621440	20448	11264
2686976	27072	16160
2752512	28768	16112
2818048	20176	9712
2883584	18592	15104
2949120	13984	10960
3014656	19168	15360
3080192	9888	6288
3145728	6768	3648
3211264	7072	3648
3276800	6608	4112
3342336	6960	3632
3407872	8672	4368
3473408	7264	4176
3538944	6848	3520
3604480	12128	3472
3670016	7968	5392
3735552	10064	7152
3801088	21664	16704
3866624	9552	4800
3932160	9968	5568
3997696	8160	4544
4063232	8576	5600
4128768	18624	15328
4194304	16896	12800
4325376	12688	9056
4456448	11536	5312
4587520	18112	7248
4718592	15216	7856
4849664	18304	14208
4980736	12368	8496
5111808	11632	9120
5242880	6880	2992
5373952	5360	2672
5505024	5280	2512
5636096	5520	2224
5767168	4592	2032
5898240	9648	3872
6029312	8016	4976
6160384	11280	8512
6291456	7504	4736
6422528	5504	3440
6553600	7168	2528
6684672	4224	2816
6815744	6576	5072
6946816	2736	1824
7077888	2736	1072
7208960	2752	1072
7340032	2736	1088
7471104	2944	1376
7602176	3360	1664
7733248	2928	1344
7864320	4112	2448
7995392	3472	1984
8126464	3344	1696
8257536	2032	848
8388608	4016	1856
8650752	4816	2080
8912896	10272	3536
9175040	6096	3120
9437184	6592	4480
9699328	4816	3088
9961472	2960	1376
10223616	2992	1776
10485760	3040	752
10747904	2160	704
11010048	2480	960
11272192	2176	768
11534336	2944	1056
11796480	1520	704
12058624	1712	704
12320768	2640	960
12582912	1888	864
12845056	1952	944
13107200	1456	400
13369344	1792	336
13631488	1360	208
13893632	2192	480
14155776	1712	640
14417920	1328	304
14680064	1424	704
14942208	1232	656
15204352	1232	528
15466496	688	320
15728640	2880	432
15990784	2000	256
16252928	2896	1936
16515072	1136	464
16777216	1648	1120
17301504	2832	864
17825792	2352	896
18350080	3568	1056
18874368	1760	592
19398656	1616	592
19922944	1440	496
20447232	2112	640
20971520	2240	512
21495808	2768	1312
22020096	1216	288
22544384	2416	352
23068672	1408	464
23592960	1536	896
24117248	1152	528
24641536	2528	1296
25165824	1568	304
25690112	1888	1344
26214400	3056	1152
26738688	1632	912
27262976	2672	1840
27787264	1456	608
28311552	1552	864
28835840	2080	1024
29360128	1616	816
29884416	1312	464
30408704	3072	1120
30932992	4816	1472
31457280	1488	672
31981568	1472	944
32505856	672	352
33030144	1552	576
33554432	2928	1024
34603008	5424	2992
35651584	1296	704
36700160	1680	1120
37748736	1024	496
38797312	1728	976
39845888	928	320
40894464	992	608
41943040	704	208
42991616	240	112
44040192	320	208
45088768	400	176
46137344	448	96
47185920	736	256
48234496	544	256
49283072	288	192
50331648	592	288
51380224	1040	336
52428800	864	176
53477376	496	208
54525952	416	128
55574528	1360	192
56623104	432	144
57671680	1008	176
58720256	1168	336
59768832	2144	1744
60817408	896	288
61865984	464	48
62914560	256	160
63963136	1056	384
65011712	320	256
66060288	752	208
67108864	1392	672
69206016	1664	880
71303168	608	96
73400320	320	176
75497472	704	256
77594624	1536	592
79691776	1072	784
81788928	592	256
83886080	1088	464
85983232	544	176
88080384	1040	960
90177536	272	240
92274688	480	192
94371840	368	208
96468992	1104	240
98566144	1296	800
100663296	448	448
102760448	352	304
104857600	160	144
106954752	1104	528
109051904	256	128
111149056	144	112
113246208	240	224
115343360	352	352
117440512	192	192
119537664	208	192
121634816	224	224
123731968	160	112
125829120	144	144
127926272	208	192
130023424	240	240
132120576	464	96
134217728	512	304
138412032	752	672
142606336	400	288
146800640	368	336
150994944	656	416
155189248	576	528
159383552	2496	2320
163577856	4352	4288
167772160	5408	5120
171966464	4704	4384
176160768	23248	22976
180355072	3744	3392
184549376	3216	2112
188743680	1616	1536
192937984	896	880
197132288	5200	5136
201326592	3264	3216
205520896	3936	3904
209715200	864	832
213909504	352	352
218103808	304	304
222298112	528	528
226492416	2976	2960
230686720	2160	2160
234881024	416	416
239075328	2144	2128
243269632	2944	2944
247463936	304	304
251658240	2816	2816
255852544	4704	4704
260046848	352	272
264241152	176	144
268435456	2576	2544
276824064	5600	5600
285212672	8208	8112
293601280	1552	1472
301989888	304	288
310378496	224	208
318767104	0	0
327155712	32	32
335544320	128	80
343932928	48	48
352321536	32	16
360710144	48	32
369098752	0	0
377487360	80	64
385875968	32	16
394264576	0	0
402653184	32	16
411041792	0	0
419430400	0	0
427819008	112	112
436207616	0	0
444596224	16	16
452984832	0	0
461373440	16	16
469762048	0	0
478150656	16	16
486539264	0	0
494927872	0	0
503316480	16	16
511705088	0	0
520093696	0	0
528482304	0	0
536870912	0	0
553648128	0	0
570425344	0	0
587202560	0	0
603979776	0	0
620756992	0	0
637534208	0	0
654311424	0	0
671088640	0	0
687865856	0	0
704643072	0	0
721420288	0	0
738197504	0	0
754974720	0	0
771751936	0	0
788529152	0	0
805306368	0	0
822083584	0	0
838860800	0	0
855638016	0	0
872415232	0	0
889192448	0	0
905969664	0	0
922746880	0	0
939524096	0	0
956301312	0	0
973078528	0	0
989855744	0	0
1006632960	0	0
1023410176	0	0
1040187392	0	0
1056964608	0	0
1073741824	0	0
1107296256	0	0
1140850688	0	0
1174405120	0	0
1207959552	0	0
1241513984	0	0
1275068416	0	0
1308622848	0	0
1342177280	0	0
1375731712	0	0
1409286144	0	0
1442840576	0	0
1476395008	0	0
1509949440	0	0
1543503872	0	0
1577058304	0	0
1610612736	0	0
1644167168	0	0
1677721600	0	0
1711276032	0	0
1744830464	0	0
1778384896	0	0
1811939328	0	0
1845493760	0	0
1879048192	0	0
1912602624	0	0
1946157056	0	0
1979711488	0	0
2013265920	0	0
2046820352	0	0
2080374784	0	0
2113929216	0	0
2147483648	0	0
2214592512	0	0
2281701376	0	0
2348810240	0	0
2415919104	0	0
2483027968	0	0
2550136832	0	0
2617245696	0	0
2684354560	0	0
2751463424	0	0
2818572288	0	0
2885681152	0	0
2952790016	0	0
3019898880	0	0
3087007744	0	0
3154116608	0	0
3221225472	0	0
3288334336	0	0
3355443200	0	0
3422552064	0	0
3489660928	0	0
3556769792	0	0
3623878656	0	0
3690987520	0	0
3758096384	0	0
3825205248	0	0
3892314112	0	0
3959422976	0	0
4026531840	0	0
4093640704	0	0
4160749568	0	0
4227858432	0	0
~~~~~~~~~~Reuse Distance Profiler output end~~~~~~~~~~

DRAM Statistics
 CHANNEL 0
 RQ ROW_BUFFER_HIT:      72380  ROW_BUFFER_MISS:     721397
 DBUS AVG_CONGESTED_CYCLE:     3.9225
 WQ ROW_BUFFER_HIT:      88468  ROW_BUFFER_MISS:     265757  FULL:          0


CPU 0 Branch Prediction Accuracy: 91.3397% MPKI: 19.0028 Average ROB Occupancy at Mispredict: 20.5384
Branch type MPKI
BRANCH_DIRECT_JUMP: 0.255266
BRANCH_INDIRECT: 0.809497
BRANCH_CONDITIONAL: 17.2111
BRANCH_DIRECT_CALL: 0.500111
BRANCH_INDIRECT_CALL: 0.103021
BRANCH_RETURN: 0.123781

