
*** ChampSim Multicore Out-of-Order Simulator ***

Warmup Instructions: 500000000
Simulation Instructions: 1500000000
Number of CPUs: 1
Off-chip DRAM Size: 4 GiB Channels: 1 Width: 64-bit Data Rate: 3200 MT/s

VirtualMemory physical capacity: 8588881920 num_ppages: 2096895
VirtualMemory page size: 4096 log2_page_size: 12

CPU 0 runs traces/603.bwaves_s-5359B.champsimtrace.xz
CPU 0 Bimodal branch predictor
Basic BTB sets: 1024 ways: 8 indirect buffer size: 4096 RAS size: 64
Initializing LRU.
Initializing LRU.
Initializing LRU.
Initializing LRU.
Initializing rdLRU.
Initializing LRU.
Initializing LRU.
Heartbeat CPU 0 instructions: 10000001 cycles: 2684455 heartbeat IPC: 3.72515 cumulative IPC: 3.72515 (Simulation time: 0 hr 0 min 35 sec) 
Heartbeat CPU 0 instructions: 20000002 cycles: 5305305 heartbeat IPC: 3.81556 cumulative IPC: 3.76981 (Simulation time: 0 hr 1 min 8 sec) 
Heartbeat CPU 0 instructions: 30000002 cycles: 7987706 heartbeat IPC: 3.728 cumulative IPC: 3.75577 (Simulation time: 0 hr 1 min 45 sec) 
Heartbeat CPU 0 instructions: 40000001 cycles: 10675844 heartbeat IPC: 3.72005 cumulative IPC: 3.74678 (Simulation time: 0 hr 2 min 18 sec) 
Heartbeat CPU 0 instructions: 50000000 cycles: 13363855 heartbeat IPC: 3.72022 cumulative IPC: 3.74144 (Simulation time: 0 hr 2 min 51 sec) 
Heartbeat CPU 0 instructions: 60000002 cycles: 16053147 heartbeat IPC: 3.71845 cumulative IPC: 3.73759 (Simulation time: 0 hr 3 min 24 sec) 
Heartbeat CPU 0 instructions: 70000003 cycles: 18737212 heartbeat IPC: 3.72569 cumulative IPC: 3.73588 (Simulation time: 0 hr 3 min 56 sec) 
Heartbeat CPU 0 instructions: 80000002 cycles: 21418369 heartbeat IPC: 3.72973 cumulative IPC: 3.73511 (Simulation time: 0 hr 4 min 29 sec) 
Heartbeat CPU 0 instructions: 90000003 cycles: 24098453 heartbeat IPC: 3.73123 cumulative IPC: 3.73468 (Simulation time: 0 hr 5 min 2 sec) 
Heartbeat CPU 0 instructions: 100000003 cycles: 26781074 heartbeat IPC: 3.7277 cumulative IPC: 3.73398 (Simulation time: 0 hr 5 min 35 sec) 
Heartbeat CPU 0 instructions: 110000003 cycles: 29463294 heartbeat IPC: 3.72826 cumulative IPC: 3.73346 (Simulation time: 0 hr 6 min 12 sec) 
Heartbeat CPU 0 instructions: 120000003 cycles: 32141402 heartbeat IPC: 3.73398 cumulative IPC: 3.7335 (Simulation time: 0 hr 6 min 45 sec) 
Heartbeat CPU 0 instructions: 130000000 cycles: 34815829 heartbeat IPC: 3.73912 cumulative IPC: 3.73393 (Simulation time: 0 hr 7 min 17 sec) 
Heartbeat CPU 0 instructions: 140000001 cycles: 37485069 heartbeat IPC: 3.74639 cumulative IPC: 3.73482 (Simulation time: 0 hr 7 min 50 sec) 
Heartbeat CPU 0 instructions: 150000000 cycles: 40158286 heartbeat IPC: 3.74081 cumulative IPC: 3.73522 (Simulation time: 0 hr 8 min 22 sec) 
Heartbeat CPU 0 instructions: 160000001 cycles: 42824993 heartbeat IPC: 3.74994 cumulative IPC: 3.73614 (Simulation time: 0 hr 8 min 55 sec) 
Heartbeat CPU 0 instructions: 170000003 cycles: 45492883 heartbeat IPC: 3.74828 cumulative IPC: 3.73685 (Simulation time: 0 hr 9 min 27 sec) 
Heartbeat CPU 0 instructions: 180000001 cycles: 48152037 heartbeat IPC: 3.76059 cumulative IPC: 3.73816 (Simulation time: 0 hr 10 min 10 sec) 
Heartbeat CPU 0 instructions: 190000003 cycles: 50810839 heartbeat IPC: 3.76109 cumulative IPC: 3.73936 (Simulation time: 0 hr 10 min 46 sec) 
Heartbeat CPU 0 instructions: 200000000 cycles: 53448709 heartbeat IPC: 3.79094 cumulative IPC: 3.74191 (Simulation time: 0 hr 11 min 43 sec) 
Heartbeat CPU 0 instructions: 210000003 cycles: 56089689 heartbeat IPC: 3.78647 cumulative IPC: 3.744 (Simulation time: 0 hr 12 min 28 sec) 
Heartbeat CPU 0 instructions: 220000002 cycles: 58724285 heartbeat IPC: 3.79565 cumulative IPC: 3.74632 (Simulation time: 0 hr 13 min 13 sec) 
Heartbeat CPU 0 instructions: 230000002 cycles: 61378511 heartbeat IPC: 3.76758 cumulative IPC: 3.74724 (Simulation time: 0 hr 13 min 48 sec) 
Heartbeat CPU 0 instructions: 240000001 cycles: 64037275 heartbeat IPC: 3.76115 cumulative IPC: 3.74782 (Simulation time: 0 hr 14 min 29 sec) 
Heartbeat CPU 0 instructions: 250000003 cycles: 66688267 heartbeat IPC: 3.77217 cumulative IPC: 3.74879 (Simulation time: 0 hr 15 min 12 sec) 
Heartbeat CPU 0 instructions: 260000000 cycles: 69354966 heartbeat IPC: 3.74995 cumulative IPC: 3.74883 (Simulation time: 0 hr 16 min 5 sec) 
Heartbeat CPU 0 instructions: 270000001 cycles: 72024503 heartbeat IPC: 3.74597 cumulative IPC: 3.74872 (Simulation time: 0 hr 16 min 51 sec) 
Heartbeat CPU 0 instructions: 280000002 cycles: 74684980 heartbeat IPC: 3.75872 cumulative IPC: 3.74908 (Simulation time: 0 hr 17 min 33 sec) 
Heartbeat CPU 0 instructions: 290000003 cycles: 77354637 heartbeat IPC: 3.7458 cumulative IPC: 3.74897 (Simulation time: 0 hr 18 min 18 sec) 
Heartbeat CPU 0 instructions: 300000000 cycles: 80022880 heartbeat IPC: 3.74778 cumulative IPC: 3.74893 (Simulation time: 0 hr 18 min 54 sec) 
Heartbeat CPU 0 instructions: 310000001 cycles: 82683817 heartbeat IPC: 3.75807 cumulative IPC: 3.74922 (Simulation time: 0 hr 19 min 41 sec) 
Heartbeat CPU 0 instructions: 320000002 cycles: 85335724 heartbeat IPC: 3.77087 cumulative IPC: 3.74989 (Simulation time: 0 hr 20 min 16 sec) 
Heartbeat CPU 0 instructions: 330000002 cycles: 88002216 heartbeat IPC: 3.75025 cumulative IPC: 3.74991 (Simulation time: 0 hr 21 min 9 sec) 
Heartbeat CPU 0 instructions: 340000002 cycles: 90671944 heartbeat IPC: 3.7457 cumulative IPC: 3.74978 (Simulation time: 0 hr 22 min 10 sec) 
Heartbeat CPU 0 instructions: 350000000 cycles: 93333610 heartbeat IPC: 3.75704 cumulative IPC: 3.74999 (Simulation time: 0 hr 23 min 9 sec) 
Heartbeat CPU 0 instructions: 360000002 cycles: 96006295 heartbeat IPC: 3.74156 cumulative IPC: 3.74975 (Simulation time: 0 hr 24 min 5 sec) 
Heartbeat CPU 0 instructions: 370000000 cycles: 98669537 heartbeat IPC: 3.75482 cumulative IPC: 3.74989 (Simulation time: 0 hr 24 min 58 sec) 
Heartbeat CPU 0 instructions: 380000001 cycles: 101326924 heartbeat IPC: 3.7631 cumulative IPC: 3.75024 (Simulation time: 0 hr 25 min 56 sec) 
Heartbeat CPU 0 instructions: 390000002 cycles: 103961286 heartbeat IPC: 3.79599 cumulative IPC: 3.7514 (Simulation time: 0 hr 26 min 36 sec) 
Heartbeat CPU 0 instructions: 400000000 cycles: 106610902 heartbeat IPC: 3.77413 cumulative IPC: 3.75196 (Simulation time: 0 hr 27 min 35 sec) 
Heartbeat CPU 0 instructions: 410000002 cycles: 109254383 heartbeat IPC: 3.78289 cumulative IPC: 3.75271 (Simulation time: 0 hr 28 min 30 sec) 
Heartbeat CPU 0 instructions: 420000003 cycles: 111898060 heartbeat IPC: 3.78261 cumulative IPC: 3.75342 (Simulation time: 0 hr 29 min 8 sec) 
Heartbeat CPU 0 instructions: 430000003 cycles: 114545994 heartbeat IPC: 3.77653 cumulative IPC: 3.75395 (Simulation time: 0 hr 29 min 43 sec) 
Heartbeat CPU 0 instructions: 440000000 cycles: 117209214 heartbeat IPC: 3.75485 cumulative IPC: 3.75397 (Simulation time: 0 hr 30 min 20 sec) 
Heartbeat CPU 0 instructions: 450000000 cycles: 119867762 heartbeat IPC: 3.76145 cumulative IPC: 3.75414 (Simulation time: 0 hr 30 min 54 sec) 
Heartbeat CPU 0 instructions: 460000001 cycles: 122546294 heartbeat IPC: 3.73339 cumulative IPC: 3.75368 (Simulation time: 0 hr 31 min 52 sec) 
Heartbeat CPU 0 instructions: 470000004 cycles: 125212592 heartbeat IPC: 3.75052 cumulative IPC: 3.75362 (Simulation time: 0 hr 32 min 52 sec) 
Heartbeat CPU 0 instructions: 480000002 cycles: 127881135 heartbeat IPC: 3.74736 cumulative IPC: 3.75349 (Simulation time: 0 hr 33 min 51 sec) 
Heartbeat CPU 0 instructions: 490000003 cycles: 130544721 heartbeat IPC: 3.75434 cumulative IPC: 3.7535 (Simulation time: 0 hr 34 min 51 sec) 
Heartbeat CPU 0 instructions: 500000003 cycles: 133217099 heartbeat IPC: 3.74199 cumulative IPC: 3.75327 (Simulation time: 0 hr 35 min 49 sec) 

Warmup complete CPU 0 instructions: 500000003 cycles: 133217099 (Simulation time: 0 hr 35 min 49 sec) 

Heartbeat CPU 0 instructions: 510000000 cycles: 139242834 heartbeat IPC: 1.65955 cumulative IPC: 1.65955 (Simulation time: 0 hr 36 min 23 sec) 
Heartbeat CPU 0 instructions: 520000002 cycles: 145306684 heartbeat IPC: 1.64912 cumulative IPC: 1.65432 (Simulation time: 0 hr 37 min 3 sec) 
Heartbeat CPU 0 instructions: 530000003 cycles: 151390344 heartbeat IPC: 1.64375 cumulative IPC: 1.65078 (Simulation time: 0 hr 37 min 43 sec) 
Heartbeat CPU 0 instructions: 540000004 cycles: 157468818 heartbeat IPC: 1.64515 cumulative IPC: 1.64937 (Simulation time: 0 hr 38 min 10 sec) 
Heartbeat CPU 0 instructions: 550000001 cycles: 163463700 heartbeat IPC: 1.66809 cumulative IPC: 1.65308 (Simulation time: 0 hr 38 min 39 sec) 
Heartbeat CPU 0 instructions: 560000001 cycles: 169583970 heartbeat IPC: 1.63391 cumulative IPC: 1.64985 (Simulation time: 0 hr 39 min 13 sec) 
Heartbeat CPU 0 instructions: 570000000 cycles: 175618590 heartbeat IPC: 1.6571 cumulative IPC: 1.65089 (Simulation time: 0 hr 40 min 2 sec) 
Heartbeat CPU 0 instructions: 580000004 cycles: 181700900 heartbeat IPC: 1.64411 cumulative IPC: 1.65004 (Simulation time: 0 hr 40 min 53 sec) 
Heartbeat CPU 0 instructions: 590000001 cycles: 187774286 heartbeat IPC: 1.64653 cumulative IPC: 1.64965 (Simulation time: 0 hr 41 min 35 sec) 
Heartbeat CPU 0 instructions: 600000001 cycles: 193957882 heartbeat IPC: 1.61718 cumulative IPC: 1.64634 (Simulation time: 0 hr 42 min 6 sec) 
Heartbeat CPU 0 instructions: 610000000 cycles: 200427895 heartbeat IPC: 1.54559 cumulative IPC: 1.63664 (Simulation time: 0 hr 42 min 39 sec) 
Heartbeat CPU 0 instructions: 620000001 cycles: 206625446 heartbeat IPC: 1.61354 cumulative IPC: 1.63469 (Simulation time: 0 hr 43 min 18 sec) 
Heartbeat CPU 0 instructions: 630000000 cycles: 212932248 heartbeat IPC: 1.58559 cumulative IPC: 1.63081 (Simulation time: 0 hr 43 min 47 sec) 
Heartbeat CPU 0 instructions: 640000002 cycles: 219067454 heartbeat IPC: 1.62994 cumulative IPC: 1.63074 (Simulation time: 0 hr 44 min 17 sec) 
Heartbeat CPU 0 instructions: 650000001 cycles: 225165872 heartbeat IPC: 1.63977 cumulative IPC: 1.63134 (Simulation time: 0 hr 44 min 50 sec) 
Heartbeat CPU 0 instructions: 660000003 cycles: 231075087 heartbeat IPC: 1.69227 cumulative IPC: 1.63502 (Simulation time: 0 hr 45 min 19 sec) 
Heartbeat CPU 0 instructions: 670000001 cycles: 236986247 heartbeat IPC: 1.69172 cumulative IPC: 1.63825 (Simulation time: 0 hr 45 min 47 sec) 
Heartbeat CPU 0 instructions: 680000000 cycles: 242879509 heartbeat IPC: 1.69685 cumulative IPC: 1.6414 (Simulation time: 0 hr 46 min 15 sec) 
Heartbeat CPU 0 instructions: 690000001 cycles: 248800797 heartbeat IPC: 1.68882 cumulative IPC: 1.64383 (Simulation time: 0 hr 46 min 43 sec) 
Heartbeat CPU 0 instructions: 700000003 cycles: 254710760 heartbeat IPC: 1.69206 cumulative IPC: 1.64618 (Simulation time: 0 hr 47 min 10 sec) 
Heartbeat CPU 0 instructions: 710000000 cycles: 260620052 heartbeat IPC: 1.69225 cumulative IPC: 1.64831 (Simulation time: 0 hr 47 min 38 sec) 
Heartbeat CPU 0 instructions: 720000000 cycles: 266539889 heartbeat IPC: 1.68924 cumulative IPC: 1.65013 (Simulation time: 0 hr 48 min 8 sec) 
Heartbeat CPU 0 instructions: 730000004 cycles: 272452674 heartbeat IPC: 1.69125 cumulative IPC: 1.65188 (Simulation time: 0 hr 48 min 47 sec) 
Heartbeat CPU 0 instructions: 740000004 cycles: 278363387 heartbeat IPC: 1.69184 cumulative IPC: 1.6535 (Simulation time: 0 hr 49 min 14 sec) 
Heartbeat CPU 0 instructions: 750000002 cycles: 284269659 heartbeat IPC: 1.69311 cumulative IPC: 1.65505 (Simulation time: 0 hr 49 min 42 sec) 
Heartbeat CPU 0 instructions: 760000002 cycles: 290175934 heartbeat IPC: 1.69311 cumulative IPC: 1.65649 (Simulation time: 0 hr 50 min 10 sec) 
Heartbeat CPU 0 instructions: 770000001 cycles: 295939003 heartbeat IPC: 1.73519 cumulative IPC: 1.65927 (Simulation time: 0 hr 50 min 41 sec) 
Heartbeat CPU 0 instructions: 780000001 cycles: 301862074 heartbeat IPC: 1.68831 cumulative IPC: 1.66029 (Simulation time: 0 hr 51 min 13 sec) 
Heartbeat CPU 0 instructions: 790000004 cycles: 308026970 heartbeat IPC: 1.62209 cumulative IPC: 1.65895 (Simulation time: 0 hr 51 min 51 sec) 
Heartbeat CPU 0 instructions: 800000000 cycles: 313947647 heartbeat IPC: 1.689 cumulative IPC: 1.65993 (Simulation time: 0 hr 52 min 19 sec) 
Heartbeat CPU 0 instructions: 810000001 cycles: 319862811 heartbeat IPC: 1.69057 cumulative IPC: 1.6609 (Simulation time: 0 hr 52 min 46 sec) 
Heartbeat CPU 0 instructions: 820000004 cycles: 325779337 heartbeat IPC: 1.69018 cumulative IPC: 1.6618 (Simulation time: 0 hr 53 min 14 sec) 
Heartbeat CPU 0 instructions: 830000002 cycles: 331677141 heartbeat IPC: 1.69555 cumulative IPC: 1.6628 (Simulation time: 0 hr 53 min 42 sec) 
Heartbeat CPU 0 instructions: 840000002 cycles: 337570860 heartbeat IPC: 1.69672 cumulative IPC: 1.66378 (Simulation time: 0 hr 54 min 10 sec) 
Heartbeat CPU 0 instructions: 850000001 cycles: 343483650 heartbeat IPC: 1.69125 cumulative IPC: 1.66455 (Simulation time: 0 hr 54 min 37 sec) 
Heartbeat CPU 0 instructions: 860000004 cycles: 349458123 heartbeat IPC: 1.67379 cumulative IPC: 1.66481 (Simulation time: 0 hr 55 min 5 sec) 
Heartbeat CPU 0 instructions: 870000000 cycles: 355376600 heartbeat IPC: 1.68962 cumulative IPC: 1.66547 (Simulation time: 0 hr 55 min 34 sec) 
Heartbeat CPU 0 instructions: 880000002 cycles: 361467437 heartbeat IPC: 1.64181 cumulative IPC: 1.66484 (Simulation time: 0 hr 56 min 6 sec) 
Heartbeat CPU 0 instructions: 890000004 cycles: 367530155 heartbeat IPC: 1.64943 cumulative IPC: 1.66444 (Simulation time: 0 hr 56 min 55 sec) 
Heartbeat CPU 0 instructions: 900000004 cycles: 373796192 heartbeat IPC: 1.59591 cumulative IPC: 1.66265 (Simulation time: 0 hr 57 min 26 sec) 
Heartbeat CPU 0 instructions: 910000000 cycles: 379976494 heartbeat IPC: 1.61804 cumulative IPC: 1.66154 (Simulation time: 0 hr 57 min 54 sec) 
Heartbeat CPU 0 instructions: 920000004 cycles: 386461585 heartbeat IPC: 1.542 cumulative IPC: 1.65848 (Simulation time: 0 hr 58 min 22 sec) 
Heartbeat CPU 0 instructions: 930000004 cycles: 392555197 heartbeat IPC: 1.64106 cumulative IPC: 1.65807 (Simulation time: 0 hr 58 min 51 sec) 
Heartbeat CPU 0 instructions: 940000002 cycles: 398825889 heartbeat IPC: 1.59472 cumulative IPC: 1.65657 (Simulation time: 0 hr 59 min 21 sec) 
Heartbeat CPU 0 instructions: 950000000 cycles: 404913963 heartbeat IPC: 1.64256 cumulative IPC: 1.65626 (Simulation time: 0 hr 59 min 49 sec) 
Heartbeat CPU 0 instructions: 960000002 cycles: 410959111 heartbeat IPC: 1.65422 cumulative IPC: 1.65621 (Simulation time: 1 hr 0 min 18 sec) 
Heartbeat CPU 0 instructions: 970000000 cycles: 417050336 heartbeat IPC: 1.64171 cumulative IPC: 1.6559 (Simulation time: 1 hr 0 min 46 sec) 
Heartbeat CPU 0 instructions: 980000002 cycles: 423247296 heartbeat IPC: 1.61369 cumulative IPC: 1.655 (Simulation time: 1 hr 1 min 14 sec) 
Heartbeat CPU 0 instructions: 990000001 cycles: 429511504 heartbeat IPC: 1.59637 cumulative IPC: 1.65376 (Simulation time: 1 hr 1 min 43 sec) 
Heartbeat CPU 0 instructions: 1000000001 cycles: 435636668 heartbeat IPC: 1.63261 cumulative IPC: 1.65333 (Simulation time: 1 hr 2 min 11 sec) 
Heartbeat CPU 0 instructions: 1010000003 cycles: 441675729 heartbeat IPC: 1.65589 cumulative IPC: 1.65338 (Simulation time: 1 hr 2 min 39 sec) 
Heartbeat CPU 0 instructions: 1020000000 cycles: 447796767 heartbeat IPC: 1.63371 cumulative IPC: 1.653 (Simulation time: 1 hr 3 min 7 sec) 
Heartbeat CPU 0 instructions: 1030000000 cycles: 453816813 heartbeat IPC: 1.66112 cumulative IPC: 1.65315 (Simulation time: 1 hr 3 min 34 sec) 
Heartbeat CPU 0 instructions: 1040000001 cycles: 459803320 heartbeat IPC: 1.67042 cumulative IPC: 1.65347 (Simulation time: 1 hr 4 min 2 sec) 
Heartbeat CPU 0 instructions: 1050000004 cycles: 466031807 heartbeat IPC: 1.60553 cumulative IPC: 1.65257 (Simulation time: 1 hr 4 min 31 sec) 
Heartbeat CPU 0 instructions: 1060000004 cycles: 472090301 heartbeat IPC: 1.65058 cumulative IPC: 1.65254 (Simulation time: 1 hr 4 min 59 sec) 
Heartbeat CPU 0 instructions: 1070000002 cycles: 478322198 heartbeat IPC: 1.60465 cumulative IPC: 1.65167 (Simulation time: 1 hr 5 min 27 sec) 
Heartbeat CPU 0 instructions: 1080000004 cycles: 484408336 heartbeat IPC: 1.64308 cumulative IPC: 1.65152 (Simulation time: 1 hr 5 min 55 sec) 
Heartbeat CPU 0 instructions: 1090000000 cycles: 490520196 heartbeat IPC: 1.63616 cumulative IPC: 1.65126 (Simulation time: 1 hr 6 min 23 sec) 
Heartbeat CPU 0 instructions: 1100000003 cycles: 496626691 heartbeat IPC: 1.6376 cumulative IPC: 1.65103 (Simulation time: 1 hr 6 min 51 sec) 
Heartbeat CPU 0 instructions: 1110000004 cycles: 502709545 heartbeat IPC: 1.64397 cumulative IPC: 1.65091 (Simulation time: 1 hr 7 min 19 sec) 
Heartbeat CPU 0 instructions: 1120000000 cycles: 508797990 heartbeat IPC: 1.64245 cumulative IPC: 1.65078 (Simulation time: 1 hr 7 min 50 sec) 
Heartbeat CPU 0 instructions: 1130000003 cycles: 514868473 heartbeat IPC: 1.64732 cumulative IPC: 1.65072 (Simulation time: 1 hr 8 min 29 sec) 
Heartbeat CPU 0 instructions: 1140000000 cycles: 520978026 heartbeat IPC: 1.63678 cumulative IPC: 1.6505 (Simulation time: 1 hr 9 min 12 sec) 
Heartbeat CPU 0 instructions: 1150000001 cycles: 527056527 heartbeat IPC: 1.64514 cumulative IPC: 1.65042 (Simulation time: 1 hr 9 min 39 sec) 
Heartbeat CPU 0 instructions: 1160000001 cycles: 533117748 heartbeat IPC: 1.64983 cumulative IPC: 1.65041 (Simulation time: 1 hr 10 min 7 sec) 
Heartbeat CPU 0 instructions: 1170000001 cycles: 539281475 heartbeat IPC: 1.6224 cumulative IPC: 1.64998 (Simulation time: 1 hr 10 min 34 sec) 
Heartbeat CPU 0 instructions: 1180000000 cycles: 545439821 heartbeat IPC: 1.62381 cumulative IPC: 1.64959 (Simulation time: 1 hr 11 min 1 sec) 
Heartbeat CPU 0 instructions: 1190000000 cycles: 551486249 heartbeat IPC: 1.65387 cumulative IPC: 1.64966 (Simulation time: 1 hr 11 min 28 sec) 
Heartbeat CPU 0 instructions: 1200000002 cycles: 557525700 heartbeat IPC: 1.65578 cumulative IPC: 1.64974 (Simulation time: 1 hr 12 min 1 sec) 
Heartbeat CPU 0 instructions: 1210000001 cycles: 563603714 heartbeat IPC: 1.64527 cumulative IPC: 1.64968 (Simulation time: 1 hr 12 min 51 sec) 
Heartbeat CPU 0 instructions: 1220000001 cycles: 569681125 heartbeat IPC: 1.64544 cumulative IPC: 1.64962 (Simulation time: 1 hr 13 min 40 sec) 
Heartbeat CPU 0 instructions: 1230000001 cycles: 575763227 heartbeat IPC: 1.64417 cumulative IPC: 1.64955 (Simulation time: 1 hr 14 min 30 sec) 
Heartbeat CPU 0 instructions: 1240000000 cycles: 581914041 heartbeat IPC: 1.6258 cumulative IPC: 1.64922 (Simulation time: 1 hr 15 min 20 sec) 
Heartbeat CPU 0 instructions: 1250000000 cycles: 588252093 heartbeat IPC: 1.57777 cumulative IPC: 1.64822 (Simulation time: 1 hr 16 min 11 sec) 
Heartbeat CPU 0 instructions: 1260000000 cycles: 594373630 heartbeat IPC: 1.63358 cumulative IPC: 1.64803 (Simulation time: 1 hr 16 min 54 sec) 
Heartbeat CPU 0 instructions: 1270000002 cycles: 600406901 heartbeat IPC: 1.65748 cumulative IPC: 1.64815 (Simulation time: 1 hr 17 min 39 sec) 
Heartbeat CPU 0 instructions: 1280000004 cycles: 606735924 heartbeat IPC: 1.58002 cumulative IPC: 1.64724 (Simulation time: 1 hr 18 min 29 sec) 
Heartbeat CPU 0 instructions: 1290000001 cycles: 612658452 heartbeat IPC: 1.68847 cumulative IPC: 1.64775 (Simulation time: 1 hr 19 min 15 sec) 
Heartbeat CPU 0 instructions: 1300000002 cycles: 618953752 heartbeat IPC: 1.58849 cumulative IPC: 1.64698 (Simulation time: 1 hr 19 min 44 sec) 
Heartbeat CPU 0 instructions: 1310000000 cycles: 625400359 heartbeat IPC: 1.5512 cumulative IPC: 1.64573 (Simulation time: 1 hr 20 min 12 sec) 
Heartbeat CPU 0 instructions: 1320000004 cycles: 631702206 heartbeat IPC: 1.58684 cumulative IPC: 1.64498 (Simulation time: 1 hr 20 min 39 sec) 
Heartbeat CPU 0 instructions: 1330000001 cycles: 637978614 heartbeat IPC: 1.59327 cumulative IPC: 1.64434 (Simulation time: 1 hr 21 min 6 sec) 
Heartbeat CPU 0 instructions: 1340000001 cycles: 643890969 heartbeat IPC: 1.69137 cumulative IPC: 1.64489 (Simulation time: 1 hr 21 min 33 sec) 
Heartbeat CPU 0 instructions: 1350000001 cycles: 649987326 heartbeat IPC: 1.64032 cumulative IPC: 1.64483 (Simulation time: 1 hr 22 min 0 sec) 
Heartbeat CPU 0 instructions: 1360000004 cycles: 656041572 heartbeat IPC: 1.65173 cumulative IPC: 1.64491 (Simulation time: 1 hr 22 min 27 sec) 
Heartbeat CPU 0 instructions: 1370000002 cycles: 662078157 heartbeat IPC: 1.65657 cumulative IPC: 1.64504 (Simulation time: 1 hr 22 min 53 sec) 
Heartbeat CPU 0 instructions: 1380000003 cycles: 667992506 heartbeat IPC: 1.6908 cumulative IPC: 1.64555 (Simulation time: 1 hr 23 min 20 sec) 
Heartbeat CPU 0 instructions: 1390000002 cycles: 673889815 heartbeat IPC: 1.69569 cumulative IPC: 1.6461 (Simulation time: 1 hr 23 min 46 sec) 
Heartbeat CPU 0 instructions: 1400000000 cycles: 679789533 heartbeat IPC: 1.695 cumulative IPC: 1.64663 (Simulation time: 1 hr 24 min 13 sec) 
Heartbeat CPU 0 instructions: 1410000004 cycles: 685710422 heartbeat IPC: 1.68894 cumulative IPC: 1.64708 (Simulation time: 1 hr 24 min 39 sec) 
Heartbeat CPU 0 instructions: 1420000001 cycles: 691625542 heartbeat IPC: 1.69058 cumulative IPC: 1.64754 (Simulation time: 1 hr 25 min 6 sec) 
Heartbeat CPU 0 instructions: 1430000003 cycles: 697543203 heartbeat IPC: 1.68986 cumulative IPC: 1.64798 (Simulation time: 1 hr 25 min 33 sec) 
Heartbeat CPU 0 instructions: 1440000002 cycles: 703827676 heartbeat IPC: 1.59122 cumulative IPC: 1.64736 (Simulation time: 1 hr 26 min 13 sec) 
Heartbeat CPU 0 instructions: 1450000000 cycles: 709553368 heartbeat IPC: 1.74651 cumulative IPC: 1.64834 (Simulation time: 1 hr 26 min 39 sec) 
Heartbeat CPU 0 instructions: 1460000004 cycles: 715268685 heartbeat IPC: 1.74968 cumulative IPC: 1.64934 (Simulation time: 1 hr 27 min 6 sec) 
Heartbeat CPU 0 instructions: 1470000001 cycles: 721096379 heartbeat IPC: 1.71594 cumulative IPC: 1.65 (Simulation time: 1 hr 27 min 33 sec) 
Heartbeat CPU 0 instructions: 1480000001 cycles: 727002194 heartbeat IPC: 1.69325 cumulative IPC: 1.65043 (Simulation time: 1 hr 27 min 59 sec) 
Heartbeat CPU 0 instructions: 1490000001 cycles: 732909433 heartbeat IPC: 1.69284 cumulative IPC: 1.65085 (Simulation time: 1 hr 28 min 26 sec) 
Heartbeat CPU 0 instructions: 1500000004 cycles: 738822343 heartbeat IPC: 1.69122 cumulative IPC: 1.65124 (Simulation time: 1 hr 28 min 53 sec) 
Heartbeat CPU 0 instructions: 1510000004 cycles: 744736693 heartbeat IPC: 1.6908 cumulative IPC: 1.65162 (Simulation time: 1 hr 29 min 20 sec) 
Heartbeat CPU 0 instructions: 1520000000 cycles: 750649569 heartbeat IPC: 1.69122 cumulative IPC: 1.652 (Simulation time: 1 hr 29 min 46 sec) 
Heartbeat CPU 0 instructions: 1530000004 cycles: 756554066 heartbeat IPC: 1.69363 cumulative IPC: 1.6524 (Simulation time: 1 hr 30 min 13 sec) 
Heartbeat CPU 0 instructions: 1540000003 cycles: 762455544 heartbeat IPC: 1.69449 cumulative IPC: 1.65279 (Simulation time: 1 hr 30 min 45 sec) 
Heartbeat CPU 0 instructions: 1550000003 cycles: 768343226 heartbeat IPC: 1.69846 cumulative IPC: 1.65321 (Simulation time: 1 hr 31 min 33 sec) 
Heartbeat CPU 0 instructions: 1560000002 cycles: 774242393 heartbeat IPC: 1.69515 cumulative IPC: 1.6536 (Simulation time: 1 hr 32 min 22 sec) 
Heartbeat CPU 0 instructions: 1570000000 cycles: 780151787 heartbeat IPC: 1.69222 cumulative IPC: 1.65395 (Simulation time: 1 hr 32 min 51 sec) 
Heartbeat CPU 0 instructions: 1580000004 cycles: 786145775 heartbeat IPC: 1.66834 cumulative IPC: 1.65409 (Simulation time: 1 hr 33 min 19 sec) 
Heartbeat CPU 0 instructions: 1590000002 cycles: 792183157 heartbeat IPC: 1.65635 cumulative IPC: 1.65411 (Simulation time: 1 hr 33 min 46 sec) 
Heartbeat CPU 0 instructions: 1600000003 cycles: 798265803 heartbeat IPC: 1.64402 cumulative IPC: 1.65401 (Simulation time: 1 hr 34 min 14 sec) 
Heartbeat CPU 0 instructions: 1610000004 cycles: 804400069 heartbeat IPC: 1.63019 cumulative IPC: 1.6538 (Simulation time: 1 hr 34 min 48 sec) 
Heartbeat CPU 0 instructions: 1620000003 cycles: 810796026 heartbeat IPC: 1.56349 cumulative IPC: 1.65294 (Simulation time: 1 hr 35 min 17 sec) 
Heartbeat CPU 0 instructions: 1630000000 cycles: 817012042 heartbeat IPC: 1.60875 cumulative IPC: 1.65254 (Simulation time: 1 hr 36 min 4 sec) 
Heartbeat CPU 0 instructions: 1640000003 cycles: 823306897 heartbeat IPC: 1.5886 cumulative IPC: 1.65196 (Simulation time: 1 hr 36 min 42 sec) 
Heartbeat CPU 0 instructions: 1650000001 cycles: 829419589 heartbeat IPC: 1.63594 cumulative IPC: 1.65182 (Simulation time: 1 hr 37 min 11 sec) 
Heartbeat CPU 0 instructions: 1660000002 cycles: 835713871 heartbeat IPC: 1.58874 cumulative IPC: 1.65125 (Simulation time: 1 hr 37 min 40 sec) 
Heartbeat CPU 0 instructions: 1670000002 cycles: 841721733 heartbeat IPC: 1.66449 cumulative IPC: 1.65137 (Simulation time: 1 hr 38 min 10 sec) 
Heartbeat CPU 0 instructions: 1680000001 cycles: 847766184 heartbeat IPC: 1.65441 cumulative IPC: 1.65139 (Simulation time: 1 hr 38 min 39 sec) 
Heartbeat CPU 0 instructions: 1690000000 cycles: 853795738 heartbeat IPC: 1.6585 cumulative IPC: 1.65145 (Simulation time: 1 hr 39 min 9 sec) 
Heartbeat CPU 0 instructions: 1700000002 cycles: 859778919 heartbeat IPC: 1.67135 cumulative IPC: 1.65161 (Simulation time: 1 hr 39 min 38 sec) 
Heartbeat CPU 0 instructions: 1710000001 cycles: 865860317 heartbeat IPC: 1.64436 cumulative IPC: 1.65155 (Simulation time: 1 hr 40 min 7 sec) 
Heartbeat CPU 0 instructions: 1720000000 cycles: 872101318 heartbeat IPC: 1.60231 cumulative IPC: 1.65114 (Simulation time: 1 hr 40 min 37 sec) 
Heartbeat CPU 0 instructions: 1730000001 cycles: 878089849 heartbeat IPC: 1.66986 cumulative IPC: 1.65129 (Simulation time: 1 hr 41 min 6 sec) 
Heartbeat CPU 0 instructions: 1740000001 cycles: 884210227 heartbeat IPC: 1.63389 cumulative IPC: 1.65115 (Simulation time: 1 hr 41 min 50 sec) 
Heartbeat CPU 0 instructions: 1750000004 cycles: 890324847 heartbeat IPC: 1.63543 cumulative IPC: 1.65102 (Simulation time: 1 hr 42 min 30 sec) 
Heartbeat CPU 0 instructions: 1760000003 cycles: 896379889 heartbeat IPC: 1.65152 cumulative IPC: 1.65102 (Simulation time: 1 hr 43 min 13 sec) 
Heartbeat CPU 0 instructions: 1770000003 cycles: 902416320 heartbeat IPC: 1.65661 cumulative IPC: 1.65107 (Simulation time: 1 hr 43 min 54 sec) 
Heartbeat CPU 0 instructions: 1780000000 cycles: 908430964 heartbeat IPC: 1.66261 cumulative IPC: 1.65116 (Simulation time: 1 hr 44 min 22 sec) 
Heartbeat CPU 0 instructions: 1790000001 cycles: 914610779 heartbeat IPC: 1.61817 cumulative IPC: 1.6509 (Simulation time: 1 hr 45 min 4 sec) 
Heartbeat CPU 0 instructions: 1800000000 cycles: 920562276 heartbeat IPC: 1.68025 cumulative IPC: 1.65112 (Simulation time: 1 hr 45 min 53 sec) 
Heartbeat CPU 0 instructions: 1810000000 cycles: 926450694 heartbeat IPC: 1.69825 cumulative IPC: 1.65147 (Simulation time: 1 hr 46 min 26 sec) 
Heartbeat CPU 0 instructions: 1820000001 cycles: 932381405 heartbeat IPC: 1.68614 cumulative IPC: 1.65173 (Simulation time: 1 hr 46 min 54 sec) 
Heartbeat CPU 0 instructions: 1830000002 cycles: 938367278 heartbeat IPC: 1.6706 cumulative IPC: 1.65187 (Simulation time: 1 hr 47 min 21 sec) 
Heartbeat CPU 0 instructions: 1840000000 cycles: 944311148 heartbeat IPC: 1.68241 cumulative IPC: 1.65209 (Simulation time: 1 hr 47 min 49 sec) 
Heartbeat CPU 0 instructions: 1850000002 cycles: 950240476 heartbeat IPC: 1.68653 cumulative IPC: 1.65234 (Simulation time: 1 hr 48 min 17 sec) 
Heartbeat CPU 0 instructions: 1860000000 cycles: 956197882 heartbeat IPC: 1.67858 cumulative IPC: 1.65253 (Simulation time: 1 hr 48 min 49 sec) 
Heartbeat CPU 0 instructions: 1870000002 cycles: 962152587 heartbeat IPC: 1.67934 cumulative IPC: 1.65272 (Simulation time: 1 hr 49 min 20 sec) 
Heartbeat CPU 0 instructions: 1880000000 cycles: 968058585 heartbeat IPC: 1.69319 cumulative IPC: 1.65301 (Simulation time: 1 hr 50 min 2 sec) 
Heartbeat CPU 0 instructions: 1890000001 cycles: 973972490 heartbeat IPC: 1.69093 cumulative IPC: 1.65328 (Simulation time: 1 hr 50 min 31 sec) 
Heartbeat CPU 0 instructions: 1900000004 cycles: 979881333 heartbeat IPC: 1.69238 cumulative IPC: 1.65355 (Simulation time: 1 hr 50 min 59 sec) 
Heartbeat CPU 0 instructions: 1910000004 cycles: 985776583 heartbeat IPC: 1.69628 cumulative IPC: 1.65384 (Simulation time: 1 hr 51 min 28 sec) 
Heartbeat CPU 0 instructions: 1920000003 cycles: 991646828 heartbeat IPC: 1.70351 cumulative IPC: 1.65418 (Simulation time: 1 hr 52 min 2 sec) 
Heartbeat CPU 0 instructions: 1930000002 cycles: 997641676 heartbeat IPC: 1.6681 cumulative IPC: 1.65428 (Simulation time: 1 hr 52 min 46 sec) 
Heartbeat CPU 0 instructions: 1940000000 cycles: 1003615314 heartbeat IPC: 1.67402 cumulative IPC: 1.65442 (Simulation time: 1 hr 53 min 36 sec) 
Heartbeat CPU 0 instructions: 1950000000 cycles: 1009566332 heartbeat IPC: 1.68038 cumulative IPC: 1.65459 (Simulation time: 1 hr 54 min 26 sec) 
Heartbeat CPU 0 instructions: 1960000000 cycles: 1015523909 heartbeat IPC: 1.67853 cumulative IPC: 1.65475 (Simulation time: 1 hr 55 min 13 sec) 
Heartbeat CPU 0 instructions: 1970000000 cycles: 1021435729 heartbeat IPC: 1.69153 cumulative IPC: 1.655 (Simulation time: 1 hr 56 min 0 sec) 
Heartbeat CPU 0 instructions: 1980000003 cycles: 1027408565 heartbeat IPC: 1.67425 cumulative IPC: 1.65513 (Simulation time: 1 hr 56 min 34 sec) 
Heartbeat CPU 0 instructions: 1990000003 cycles: 1033335805 heartbeat IPC: 1.68713 cumulative IPC: 1.65534 (Simulation time: 1 hr 57 min 16 sec) 
*** Reached end of trace: traces/603.bwaves_s-5359B.champsimtrace.xz
Heartbeat CPU 0 instructions: 2000000001 cycles: 1039403232 heartbeat IPC: 1.64814 cumulative IPC: 1.65529 (Simulation time: 1 hr 58 min 6 sec) 
Finished CPU 0 instructions: 1500000003 cycles: 906186134 cumulative IPC: 1.65529 (Simulation time: 1 hr 58 min 6 sec) 

ChampSim completed all CPUs

Region of Interest Statistics

CPU 0 cumulative IPC: 1.65529 instructions: 1500000003 cycles: 906186134
cpu0_DTLB TOTAL     ACCESS:  216010661  HIT:  216007685  MISS:       2976
cpu0_DTLB LOAD      ACCESS:  184273945  HIT:  184273639  MISS:        306
cpu0_DTLB RFO       ACCESS:   31736716  HIT:   31734046  MISS:       2670
cpu0_DTLB PREFETCH  ACCESS:          0  HIT:          0  MISS:          0
cpu0_DTLB WRITEBACK ACCESS:          0  HIT:          0  MISS:          0
cpu0_DTLB TRANSLATION ACCESS:          0  HIT:          0  MISS:          0
cpu0_DTLB PREFETCH  REQUESTED:          0  ISSUED:          0  USEFUL:          0  USELESS:          0
cpu0_DTLB AVERAGE MISS LATENCY: 215.833 cycles
cpu0_ITLB TOTAL     ACCESS:  179490387  HIT:  179490387  MISS:          0
cpu0_ITLB LOAD      ACCESS:  179490387  HIT:  179490387  MISS:          0
cpu0_ITLB RFO       ACCESS:          0  HIT:          0  MISS:          0
cpu0_ITLB PREFETCH  ACCESS:          0  HIT:          0  MISS:          0
cpu0_ITLB WRITEBACK ACCESS:          0  HIT:          0  MISS:          0
cpu0_ITLB TRANSLATION ACCESS:          0  HIT:          0  MISS:          0
cpu0_ITLB PREFETCH  REQUESTED:          0  ISSUED:          0  USEFUL:          0  USELESS:          0
cpu0_ITLB AVERAGE MISS LATENCY: -nan cycles
cpu0_L1I TOTAL     ACCESS:    8489046  HIT:    8489041  MISS:          5
cpu0_L1I LOAD      ACCESS:    8489046  HIT:    8489041  MISS:          5
cpu0_L1I RFO       ACCESS:          0  HIT:          0  MISS:          0
cpu0_L1I PREFETCH  ACCESS:          0  HIT:          0  MISS:          0
cpu0_L1I WRITEBACK ACCESS:          0  HIT:          0  MISS:          0
cpu0_L1I TRANSLATION ACCESS:          0  HIT:          0  MISS:          0
cpu0_L1I PREFETCH  REQUESTED:          0  ISSUED:          0  USEFUL:          0  USELESS:          0
cpu0_L1I AVERAGE MISS LATENCY: 343.4 cycles
cpu0_STLB TOTAL     ACCESS:       2976  HIT:         25  MISS:       2951
cpu0_STLB LOAD      ACCESS:        306  HIT:         24  MISS:        282
cpu0_STLB RFO       ACCESS:       2670  HIT:          1  MISS:       2669
cpu0_STLB PREFETCH  ACCESS:          0  HIT:          0  MISS:          0
cpu0_STLB WRITEBACK ACCESS:          0  HIT:          0  MISS:          0
cpu0_STLB TRANSLATION ACCESS:          0  HIT:          0  MISS:          0
cpu0_STLB PREFETCH  REQUESTED:          0  ISSUED:          0  USEFUL:          0  USELESS:          0
cpu0_STLB AVERAGE MISS LATENCY: 208.585 cycles
cpu0_L1D TOTAL     ACCESS:  249733301  HIT:  249539892  MISS:     193409
cpu0_L1D LOAD      ACCESS:  194357326  HIT:  194335964  MISS:      21362
cpu0_L1D RFO       ACCESS:   55373028  HIT:   55201185  MISS:     171843
cpu0_L1D PREFETCH  ACCESS:          0  HIT:          0  MISS:          0
cpu0_L1D WRITEBACK ACCESS:          0  HIT:          0  MISS:          0
cpu0_L1D TRANSLATION ACCESS:       2947  HIT:       2743  MISS:        204
cpu0_L1D PREFETCH  REQUESTED:          0  ISSUED:          0  USEFUL:          0  USELESS:          0
cpu0_L1D AVERAGE MISS LATENCY: 274.266 cycles
cpu0_L2C TOTAL     ACCESS:     363936  HIT:     175109  MISS:     188827
cpu0_L2C LOAD      ACCESS:      21367  HIT:       3773  MISS:      17594
cpu0_L2C RFO       ACCESS:     171843  HIT:        898  MISS:     170945
cpu0_L2C PREFETCH  ACCESS:          0  HIT:          0  MISS:          0
cpu0_L2C WRITEBACK ACCESS:     170522  HIT:     170243  MISS:        279
cpu0_L2C TRANSLATION ACCESS:        204  HIT:        195  MISS:          9
cpu0_L2C PREFETCH  REQUESTED:          0  ISSUED:          0  USEFUL:          0  USELESS:          0
cpu0_L2C AVERAGE MISS LATENCY: 269.659 cycles
LLC TOTAL     ACCESS:     358735  HIT:     170345  MISS:     188390
LLC LOAD      ACCESS:      17594  HIT:        203  MISS:      17391
LLC RFO       ACCESS:     170945  HIT:        157  MISS:     170788
LLC PREFETCH  ACCESS:          0  HIT:          0  MISS:          0
LLC WRITEBACK ACCESS:     170187  HIT:     169983  MISS:        204
LLC TRANSLATION ACCESS:          9  HIT:          2  MISS:          7
LLC PREFETCH  REQUESTED:          0  ISSUED:          0  USEFUL:          0  USELESS:          0
LLC AVERAGE MISS LATENCY: 249.267 cycles
~~~~~~~~~~Reuse Distance Profiler output~~~~~~~~~~
0	53164352	25462848
1	72381312	65689024
2	55021584	49381136
3	36678880	34724400
4	22176544	20470064
5	11019136	9219712
6	10386320	8722128
7	10076224	8470352
8	8579792	6771968
9	7608832	6477648
10	5406896	4736272
11	5243360	3827824
12	4746336	3367344
13	3871584	2369712
14	2566064	1770208
15	2674704	2011312
16	2305552	1811584
17	1868608	1277616
18	1561728	1328304
19	2108544	1562144
20	1376880	1031904
21	1754480	1339024
22	1620848	1338464
23	1303104	1031024
24	1021088	705968
25	1280176	829744
26	777296	619376
27	864720	633072
28	719136	549536
29	663872	517088
30	681344	462464
31	600528	437008
32	630208	511792
33	539312	325712
34	470640	327552
35	314224	244192
36	329600	263888
37	301264	219648
38	306336	205952
39	268864	167952
40	249440	167024
41	310384	242960
42	298032	243104
43	377456	283024
44	326656	207248
45	272288	215120
46	309920	217040
47	295328	205904
48	288928	234768
49	158320	79504
50	153888	116736
51	237552	181584
52	159680	117424
53	211680	116928
54	213312	136416
55	160448	98336
56	151008	105456
57	133040	94976
58	199904	131760
59	225280	142288
60	157440	79744
61	112400	54336
62	152016	61392
63	115712	51248
64	196672	63360
66	195328	119360
68	180896	110528
70	217456	96848
72	145680	82928
74	284560	233024
76	140032	98928
78	198288	103760
80	214528	129280
82	151456	106400
84	228240	156864
86	129280	73024
88	260544	221536
90	104544	57312
92	173888	125024
94	136848	101312
96	119760	72960
98	185616	126528
100	107776	45360
102	92128	57008
104	72944	47760
106	164880	134528
108	92000	56416
110	123664	53344
112	72704	42384
114	99488	82352
116	86384	71520
118	142576	105712
120	100096	38928
122	65520	34992
124	53840	31088
126	131328	105728
128	174640	112640
132	138768	118336
136	324576	291488
140	153008	77152
144	122288	80400
148	127808	95920
152	81248	56720
156	120944	61264
160	242816	176352
164	139824	32768
168	110656	53024
172	102304	66848
176	93712	43504
180	78320	51648
184	104736	63760
188	81744	38736
192	106272	51840
196	80288	45472
200	67888	33712
204	107376	63488
208	110448	82672
212	130336	83904
216	75440	35568
220	187856	138928
224	92016	37408
228	69856	49600
232	53024	24448
236	105840	76064
240	55952	30960
244	65616	45968
248	112368	68224
252	195504	148784
256	240800	83600
264	172768	34384
272	179648	26224
280	371120	61984
288	157568	95552
296	474192	50112
304	81280	34096
312	78144	22864
320	681024	455872
328	295760	79664
336	94096	60784
344	92064	44480
352	194144	160656
360	333168	244704
368	80432	59040
376	57616	23904
384	35152	20464
392	18240	7536
400	58160	15728
408	174592	136928
416	112304	89680
424	30640	20192
432	133696	42016
440	156368	82336
448	126464	63904
456	133312	61904
464	52720	20704
472	86912	23968
480	164640	64720
488	93248	24736
496	43904	33168
504	69664	47120
512	124272	22560
528	67680	35920
544	102480	48448
560	74256	34720
576	116192	80848
592	87552	67968
608	126240	55952
624	66400	30832
640	59264	26480
656	64192	39248
672	69584	28976
688	88656	70160
704	86192	53680
720	127616	47424
736	65184	56256
752	68816	34064
768	48160	14576
784	80000	40368
800	83840	19680
816	43344	11536
832	56192	11984
848	73792	45472
864	64384	15088
880	60016	22064
896	28704	13184
912	69792	45328
928	10096	2768
944	53008	45568
960	70032	60304
976	30944	27296
992	61376	57504
1008	54240	31984
1024	44016	17520
1056	29600	12336
1088	32528	6992
1120	73664	46176
1152	58640	32592
1184	41808	13088
1216	41280	21024
1248	38048	11104
1280	70272	29872
1312	67360	50624
1344	49840	39536
1376	41376	26352
1408	21296	7328
1440	12784	6080
1472	12608	3184
1504	15008	4384
1536	17440	6672
1568	15760	4800
1600	12400	2208
1632	13040	5600
1664	12896	7536
1696	11648	7328
1728	14272	6848
1760	11840	4944
1792	16656	11776
1824	11760	5040
1856	7440	4032
1888	9392	3760
1920	16608	9680
1952	12304	4240
1984	13136	8064
2016	19392	11488
2048	44160	27104
2112	30832	18784
2176	30208	14304
2240	36560	18048
2304	36064	19888
2368	27200	13648
2432	20160	9552
2496	15408	7856
2560	19504	9328
2624	12160	4592
2688	12352	4608
2752	13184	7392
2816	9920	3264
2880	11472	3056
2944	6960	2384
3008	4800	1888
3072	5008	1952
3136	3568	880
3200	3520	1008
3264	11168	9760
3328	10976	8752
3392	4032	2736
3456	9072	7296
3520	4496	1872
3584	10608	8992
3648	8768	7776
3712	9056	7424
3776	2256	96
3840	1840	240
3904	14912	160
3968	35536	10336
4032	47824	36432
4096	9232	4576
4224	5024	912
4352	7328	3536
4480	3136	528
4608	6320	3568
4736	11232	7104
4864	9136	1712
4992	12992	3104
5120	18944	5088
5248	6720	2016
5376	7952	496
5504	2928	608
5632	10896	7696
5760	4144	2592
5888	2448	848
6016	3088	1712
6144	2528	464
6272	3632	1088
6400	8656	4608
6528	6352	2592
6656	3952	1456
6784	5616	2208
6912	6736	1936
7040	8144	3136
7168	18080	9888
7296	18096	11632
7424	11776	6512
7552	9312	4736
7680	11648	5920
7808	10672	4768
7936	10976	4080
8064	10064	2976
8192	13728	6880
8448	11536	5312
8704	11456	5728
8960	9968	5808
9216	13488	8016
9472	3840	2464
9728	608	192
9984	464	128
10240	368	160
10496	560	128
10752	21840	21360
11008	5968	3360
11264	3664	2976
11520	20544	19232
11776	33376	32336
12032	14512	6064
12288	10544	3840
12544	9200	7360
12800	13792	6160
13056	8592	1744
13312	5872	368
13568	11120	768
13824	10896	1568
14080	7232	608
14336	9200	848
14592	7632	1488
14848	5264	2016
15104	4992	1104
15360	6592	656
15616	14160	9504
15872	17472	5728
16128	10992	9040
16384	15264	7744
16896	17408	8320
17408	14256	5856
17920	11376	4992
18432	16448	2976
18944	18592	2640
19456	39632	8816
19968	35696	10736
20480	45520	18928
20992	36592	13760
21504	46896	12752
22016	44064	21744
22528	44496	24944
23040	30672	13552
23552	25584	11392
24064	18384	11856
24576	8640	4160
25088	4912	2656
25600	1824	896
26112	4816	2976
26624	7936	3072
27136	8016	5184
27648	10000	3712
28160	7888	3344
28672	8352	3456
29184	14592	8368
29696	8592	3072
30208	15776	3856
30720	12496	6432
31232	9536	3552
31744	12720	8112
32256	6880	2704
32768	14432	7232
33792	7664	4688
34816	6944	1088
35840	3504	480
36864	3424	832
37888	3920	928
38912	2496	480
39936	1392	336
40960	592	160
41984	352	160
43008	416	96
44032	400	96
45056	224	48
46080	848	64
47104	1088	0
48128	2272	160
49152	1776	32
50176	1280	32
51200	1152	96
52224	912	32
53248	848	112
54272	528	64
55296	208	0
56320	96	0
57344	112	0
58368	48	0
59392	112	16
60416	96	64
61440	304	240
62464	544	64
63488	384	128
64512	336	32
65536	432	160
67584	448	64
69632	64	16
71680	16	16
73728	16	16
75776	16	0
77824	48	0
79872	16	16
81920	0	0
83968	48	16
86016	64	16
88064	5584	4912
90112	3488	1216
92160	1888	1104
94208	4320	2368
96256	1840	896
98304	1360	80
100352	96	48
102400	128	48
104448	256	128
106496	144	96
108544	128	80
110592	3408	720
112640	2688	2640
114688	1600	368
116736	21696	16384
118784	9712	7072
120832	9136	7088
122880	10640	8464
124928	8432	4976
126976	11776	8720
129024	4208	2944
131072	2816	1680
135168	1424	608
139264	304	112
143360	336	128
147456	176	80
151552	384	224
155648	2080	1120
159744	11216	8224
163840	3552	2368
167936	3840	2688
172032	4288	2960
176128	2128	1472
180224	160	64
184320	96	32
188416	144	64
192512	160	48
196608	144	32
200704	96	64
204800	80	32
208896	32	16
212992	96	32
217088	96	32
221184	48	0
225280	16	0
229376	32	16
233472	944	544
237568	416	224
241664	560	304
245760	432	320
249856	416	240
253952	528	288
258048	208	112
262144	144	64
270336	112	48
278528	80	16
286720	128	32
294912	32	32
303104	96	64
311296	160	80
319488	448	272
327680	192	160
335872	144	80
344064	192	80
352256	80	32
360448	64	16
368640	0	0
376832	16	0
385024	48	32
393216	16	0
401408	48	48
409600	64	0
417792	96	80
425984	128	112
434176	32	32
442368	32	16
450560	0	0
458752	16	16
466944	48	32
475136	0	0
483328	0	0
491520	16	0
499712	0	0
507904	0	0
516096	0	0
524288	0	0
540672	32	0
557056	32	32
573440	16	16
589824	16	16
606208	96	96
622592	48	48
638976	0	0
655360	0	0
671744	32	32
688128	16	16
704512	64	16
720896	144	96
737280	80	48
753664	32	16
770048	96	96
786432	48	48
802816	160	144
819200	288	224
835584	176	160
851968	128	128
868352	16	16
884736	64	64
901120	64	64
917504	32	32
933888	0	0
950272	16	16
966656	16	16
983040	0	0
999424	0	0
1015808	16	16
1032192	64	64
1048576	128	128
1081344	224	224
1114112	240	240
1146880	64	64
1179648	0	0
1212416	0	0
1245184	32	32
1277952	48	48
1310720	80	80
1343488	0	0
1376256	112	112
1409024	80	80
1441792	96	96
1474560	96	96
1507328	320	320
1540096	112	112
1572864	32	32
1605632	0	0
1638400	16	16
1671168	80	80
1703936	0	0
1736704	0	0
1769472	176	176
1802240	176	176
1835008	96	96
1867776	0	0
1900544	16	16
1933312	0	0
1966080	0	0
1998848	0	0
2031616	0	0
2064384	0	0
2097152	96	96
2162688	16	16
2228224	32	32
2293760	0	0
2359296	0	0
2424832	32	32
2490368	0	0
2555904	0	0
2621440	0	0
2686976	32	32
2752512	0	0
2818048	0	0
2883584	16	16
2949120	0	0
3014656	0	0
3080192	0	0
3145728	16	16
3211264	0	0
3276800	0	0
3342336	64	64
3407872	32	32
3473408	0	0
3538944	32	32
3604480	0	0
3670016	32	32
3735552	0	0
3801088	0	0
3866624	16	16
3932160	0	0
3997696	0	0
4063232	16	16
4128768	0	0
4194304	16	16
4325376	32	32
4456448	0	0
4587520	0	0
4718592	0	0
4849664	0	0
4980736	0	0
5111808	16	16
5242880	0	0
5373952	16	16
5505024	0	0
5636096	0	0
5767168	16	16
5898240	0	0
6029312	0	0
6160384	16	16
6291456	16	16
6422528	0	0
6553600	0	0
6684672	0	0
6815744	0	0
6946816	0	0
7077888	0	0
7208960	0	0
7340032	0	0
7471104	0	0
7602176	0	0
7733248	0	0
7864320	0	0
7995392	0	0
8126464	16	16
8257536	0	0
8388608	0	0
8650752	0	0
8912896	0	0
9175040	0	0
9437184	0	0
9699328	16	16
9961472	0	0
10223616	0	0
10485760	0	0
10747904	0	0
11010048	0	0
11272192	0	0
11534336	0	0
11796480	0	0
12058624	0	0
12320768	0	0
12582912	0	0
12845056	0	0
13107200	0	0
13369344	0	0
13631488	0	0
13893632	0	0
14155776	0	0
14417920	0	0
14680064	0	0
14942208	0	0
15204352	0	0
15466496	0	0
15728640	0	0
15990784	0	0
16252928	16	16
16515072	0	0
16777216	0	0
17301504	0	0
17825792	16	16
18350080	16	16
18874368	0	0
19398656	48	48
19922944	16	16
20447232	0	0
20971520	0	0
21495808	0	0
22020096	0	0
22544384	0	0
23068672	0	0
23592960	0	0
24117248	0	0
24641536	0	0
25165824	0	0
25690112	0	0
26214400	0	0
26738688	32	32
27262976	0	0
27787264	0	0
28311552	0	0
28835840	0	0
29360128	0	0
29884416	32	32
30408704	0	0
30932992	0	0
31457280	0	0
31981568	0	0
32505856	32	32
33030144	0	0
33554432	0	0
34603008	0	0
35651584	0	0
36700160	0	0
37748736	0	0
38797312	0	0
39845888	0	0
40894464	0	0
41943040	0	0
42991616	0	0
44040192	0	0
45088768	0	0
46137344	0	0
47185920	0	0
48234496	0	0
49283072	0	0
50331648	0	0
51380224	0	0
52428800	0	0
53477376	0	0
54525952	0	0
55574528	0	0
56623104	0	0
57671680	0	0
58720256	0	0
59768832	0	0
60817408	0	0
61865984	0	0
62914560	0	0
63963136	0	0
65011712	0	0
66060288	0	0
67108864	0	0
69206016	0	0
71303168	0	0
73400320	0	0
75497472	0	0
77594624	0	0
79691776	0	0
81788928	0	0
83886080	0	0
85983232	0	0
88080384	16	16
90177536	16	16
92274688	16	16
94371840	0	0
96468992	0	0
98566144	16	16
100663296	0	0
102760448	16	16
104857600	0	0
106954752	0	0
109051904	0	0
111149056	0	0
113246208	0	0
115343360	0	0
117440512	0	0
119537664	0	0
121634816	0	0
123731968	0	0
125829120	0	0
127926272	0	0
130023424	0	0
132120576	0	0
134217728	0	0
138412032	0	0
142606336	0	0
146800640	0	0
150994944	0	0
155189248	0	0
159383552	0	0
163577856	0	0
167772160	0	0
171966464	0	0
176160768	0	0
180355072	0	0
184549376	0	0
188743680	0	0
192937984	0	0
197132288	0	0
201326592	0	0
205520896	0	0
209715200	0	0
213909504	0	0
218103808	0	0
222298112	0	0
226492416	0	0
230686720	0	0
234881024	0	0
239075328	0	0
243269632	0	0
247463936	0	0
251658240	0	0
255852544	0	0
260046848	0	0
264241152	0	0
268435456	0	0
276824064	0	0
285212672	0	0
293601280	0	0
301989888	0	0
310378496	0	0
318767104	0	0
327155712	0	0
335544320	0	0
343932928	0	0
352321536	0	0
360710144	0	0
369098752	0	0
377487360	0	0
385875968	0	0
394264576	0	0
402653184	0	0
411041792	0	0
419430400	0	0
427819008	0	0
436207616	0	0
444596224	0	0
452984832	0	0
461373440	0	0
469762048	0	0
478150656	0	0
486539264	0	0
494927872	0	0
503316480	0	0
511705088	0	0
520093696	0	0
528482304	0	0
536870912	0	0
553648128	0	0
570425344	0	0
587202560	0	0
603979776	0	0
620756992	0	0
637534208	0	0
654311424	0	0
671088640	0	0
687865856	0	0
704643072	0	0
721420288	0	0
738197504	0	0
754974720	0	0
771751936	0	0
788529152	0	0
805306368	0	0
822083584	0	0
838860800	0	0
855638016	0	0
872415232	0	0
889192448	0	0
905969664	0	0
922746880	0	0
939524096	0	0
956301312	0	0
973078528	0	0
989855744	0	0
1006632960	0	0
1023410176	0	0
1040187392	0	0
1056964608	0	0
1073741824	0	0
1107296256	0	0
1140850688	0	0
1174405120	0	0
1207959552	0	0
1241513984	0	0
1275068416	0	0
1308622848	0	0
1342177280	0	0
1375731712	0	0
1409286144	0	0
1442840576	0	0
1476395008	0	0
1509949440	0	0
1543503872	0	0
1577058304	0	0
1610612736	0	0
1644167168	0	0
1677721600	0	0
1711276032	0	0
1744830464	0	0
1778384896	0	0
1811939328	0	0
1845493760	0	0
1879048192	0	0
1912602624	0	0
1946157056	0	0
1979711488	0	0
2013265920	0	0
2046820352	0	0
2080374784	0	0
2113929216	0	0
2147483648	0	0
2214592512	0	0
2281701376	0	0
2348810240	0	0
2415919104	0	0
2483027968	0	0
2550136832	0	0
2617245696	0	0
2684354560	0	0
2751463424	0	0
2818572288	0	0
2885681152	0	0
2952790016	0	0
3019898880	0	0
3087007744	0	0
3154116608	0	0
3221225472	0	0
3288334336	0	0
3355443200	0	0
3422552064	0	0
3489660928	0	0
3556769792	0	0
3623878656	0	0
3690987520	0	0
3758096384	0	0
3825205248	0	0
3892314112	0	0
3959422976	0	0
4026531840	0	0
4093640704	0	0
4160749568	0	0
4227858432	0	0
~~~~~~~~~~Reuse Distance Profiler output end~~~~~~~~~~

DRAM Statistics
 CHANNEL 0
 RQ ROW_BUFFER_HIT:        237  ROW_BUFFER_MISS:     187949
 DBUS AVG_CONGESTED_CYCLE:    3.90176
 WQ ROW_BUFFER_HIT:      21542  ROW_BUFFER_MISS:     148350  FULL:          0


CPU 0 Branch Prediction Accuracy: 80.4029% MPKI: 28.4227 Average ROB Occupancy at Mispredict: 47.5116
Branch type MPKI
BRANCH_DIRECT_JUMP: 6.66667e-07
BRANCH_INDIRECT: 0
BRANCH_CONDITIONAL: 28.4227
BRANCH_DIRECT_CALL: 0
BRANCH_INDIRECT_CALL: 0
BRANCH_RETURN: 0

