
*** ChampSim Multicore Out-of-Order Simulator ***

Warmup Instructions: 500000000
Simulation Instructions: 1500000000
Number of CPUs: 1
Off-chip DRAM Size: 4 GiB Channels: 1 Width: 64-bit Data Rate: 3200 MT/s

VirtualMemory physical capacity: 8588881920 num_ppages: 2096895
VirtualMemory page size: 4096 log2_page_size: 12

CPU 0 runs traces/603.bwaves_s-2931B.champsimtrace.xz
CPU 0 Bimodal branch predictor
Basic BTB sets: 1024 ways: 8 indirect buffer size: 4096 RAS size: 64
Initializing LRU.
Initializing LRU.
Initializing LRU.
Initializing LRU.
Initializing rdLRU.
Initializing LRU.
Initializing LRU.
Heartbeat CPU 0 instructions: 10000001 cycles: 2500077 heartbeat IPC: 3.99988 cumulative IPC: 3.99988 (Simulation time: 0 hr 0 min 52 sec) 
Heartbeat CPU 0 instructions: 20000001 cycles: 5000077 heartbeat IPC: 4 cumulative IPC: 3.99994 (Simulation time: 0 hr 1 min 44 sec) 
Heartbeat CPU 0 instructions: 30000001 cycles: 7500077 heartbeat IPC: 4 cumulative IPC: 3.99996 (Simulation time: 0 hr 2 min 42 sec) 
Heartbeat CPU 0 instructions: 40000001 cycles: 10000077 heartbeat IPC: 4 cumulative IPC: 3.99997 (Simulation time: 0 hr 3 min 33 sec) 
Heartbeat CPU 0 instructions: 50000001 cycles: 12500077 heartbeat IPC: 4 cumulative IPC: 3.99998 (Simulation time: 0 hr 4 min 29 sec) 
Heartbeat CPU 0 instructions: 60000001 cycles: 15000077 heartbeat IPC: 4 cumulative IPC: 3.99998 (Simulation time: 0 hr 5 min 19 sec) 
Heartbeat CPU 0 instructions: 70000001 cycles: 17500077 heartbeat IPC: 4 cumulative IPC: 3.99998 (Simulation time: 0 hr 6 min 1 sec) 
Heartbeat CPU 0 instructions: 80000001 cycles: 20000077 heartbeat IPC: 4 cumulative IPC: 3.99998 (Simulation time: 0 hr 6 min 35 sec) 
Heartbeat CPU 0 instructions: 90000001 cycles: 22500077 heartbeat IPC: 4 cumulative IPC: 3.99999 (Simulation time: 0 hr 7 min 24 sec) 
Heartbeat CPU 0 instructions: 100000001 cycles: 25000077 heartbeat IPC: 4 cumulative IPC: 3.99999 (Simulation time: 0 hr 8 min 1 sec) 
Heartbeat CPU 0 instructions: 110000001 cycles: 27500077 heartbeat IPC: 4 cumulative IPC: 3.99999 (Simulation time: 0 hr 8 min 36 sec) 
Heartbeat CPU 0 instructions: 120000001 cycles: 30000077 heartbeat IPC: 4 cumulative IPC: 3.99999 (Simulation time: 0 hr 9 min 10 sec) 
Heartbeat CPU 0 instructions: 130000001 cycles: 32500077 heartbeat IPC: 4 cumulative IPC: 3.99999 (Simulation time: 0 hr 9 min 56 sec) 
Heartbeat CPU 0 instructions: 140000001 cycles: 35000077 heartbeat IPC: 4 cumulative IPC: 3.99999 (Simulation time: 0 hr 10 min 37 sec) 
Heartbeat CPU 0 instructions: 150000001 cycles: 37500077 heartbeat IPC: 4 cumulative IPC: 3.99999 (Simulation time: 0 hr 11 min 32 sec) 
Heartbeat CPU 0 instructions: 160000001 cycles: 40000077 heartbeat IPC: 4 cumulative IPC: 3.99999 (Simulation time: 0 hr 12 min 25 sec) 
Heartbeat CPU 0 instructions: 170000001 cycles: 42500077 heartbeat IPC: 4 cumulative IPC: 3.99999 (Simulation time: 0 hr 12 min 59 sec) 
Heartbeat CPU 0 instructions: 180000001 cycles: 45000077 heartbeat IPC: 4 cumulative IPC: 3.99999 (Simulation time: 0 hr 13 min 45 sec) 
Heartbeat CPU 0 instructions: 190000001 cycles: 47500077 heartbeat IPC: 4 cumulative IPC: 3.99999 (Simulation time: 0 hr 14 min 26 sec) 
Heartbeat CPU 0 instructions: 200000001 cycles: 50000077 heartbeat IPC: 4 cumulative IPC: 3.99999 (Simulation time: 0 hr 15 min 11 sec) 
Heartbeat CPU 0 instructions: 210000001 cycles: 52500077 heartbeat IPC: 4 cumulative IPC: 3.99999 (Simulation time: 0 hr 16 min 0 sec) 
Heartbeat CPU 0 instructions: 220000001 cycles: 55000077 heartbeat IPC: 4 cumulative IPC: 3.99999 (Simulation time: 0 hr 16 min 41 sec) 
Heartbeat CPU 0 instructions: 230000001 cycles: 57500077 heartbeat IPC: 4 cumulative IPC: 3.99999 (Simulation time: 0 hr 17 min 14 sec) 
Heartbeat CPU 0 instructions: 240000001 cycles: 60000077 heartbeat IPC: 4 cumulative IPC: 3.99999 (Simulation time: 0 hr 17 min 53 sec) 
Heartbeat CPU 0 instructions: 250000001 cycles: 62500077 heartbeat IPC: 4 cumulative IPC: 3.99999 (Simulation time: 0 hr 18 min 26 sec) 
Heartbeat CPU 0 instructions: 260000001 cycles: 65000077 heartbeat IPC: 4 cumulative IPC: 4 (Simulation time: 0 hr 18 min 59 sec) 
Heartbeat CPU 0 instructions: 270000001 cycles: 67500077 heartbeat IPC: 4 cumulative IPC: 4 (Simulation time: 0 hr 19 min 31 sec) 
Heartbeat CPU 0 instructions: 280000001 cycles: 70000077 heartbeat IPC: 4 cumulative IPC: 4 (Simulation time: 0 hr 20 min 3 sec) 
Heartbeat CPU 0 instructions: 290000001 cycles: 72500077 heartbeat IPC: 4 cumulative IPC: 4 (Simulation time: 0 hr 20 min 37 sec) 
Heartbeat CPU 0 instructions: 300000001 cycles: 75000077 heartbeat IPC: 4 cumulative IPC: 4 (Simulation time: 0 hr 21 min 34 sec) 
Heartbeat CPU 0 instructions: 310000001 cycles: 77500077 heartbeat IPC: 4 cumulative IPC: 4 (Simulation time: 0 hr 22 min 32 sec) 
Heartbeat CPU 0 instructions: 320000001 cycles: 80000077 heartbeat IPC: 4 cumulative IPC: 4 (Simulation time: 0 hr 23 min 14 sec) 
Heartbeat CPU 0 instructions: 330000001 cycles: 82500077 heartbeat IPC: 4 cumulative IPC: 4 (Simulation time: 0 hr 23 min 46 sec) 
Heartbeat CPU 0 instructions: 340000001 cycles: 85000077 heartbeat IPC: 4 cumulative IPC: 4 (Simulation time: 0 hr 24 min 19 sec) 
Heartbeat CPU 0 instructions: 350000001 cycles: 87500077 heartbeat IPC: 4 cumulative IPC: 4 (Simulation time: 0 hr 24 min 52 sec) 
Heartbeat CPU 0 instructions: 360000001 cycles: 90000077 heartbeat IPC: 4 cumulative IPC: 4 (Simulation time: 0 hr 25 min 24 sec) 
Heartbeat CPU 0 instructions: 370000001 cycles: 92500077 heartbeat IPC: 4 cumulative IPC: 4 (Simulation time: 0 hr 25 min 57 sec) 
Heartbeat CPU 0 instructions: 380000001 cycles: 95000077 heartbeat IPC: 4 cumulative IPC: 4 (Simulation time: 0 hr 26 min 30 sec) 
Heartbeat CPU 0 instructions: 390000001 cycles: 97500077 heartbeat IPC: 4 cumulative IPC: 4 (Simulation time: 0 hr 27 min 3 sec) 
Heartbeat CPU 0 instructions: 400000001 cycles: 100000077 heartbeat IPC: 4 cumulative IPC: 4 (Simulation time: 0 hr 27 min 35 sec) 
Heartbeat CPU 0 instructions: 410000001 cycles: 102500077 heartbeat IPC: 4 cumulative IPC: 4 (Simulation time: 0 hr 28 min 8 sec) 
Heartbeat CPU 0 instructions: 420000001 cycles: 105000077 heartbeat IPC: 4 cumulative IPC: 4 (Simulation time: 0 hr 28 min 41 sec) 
Heartbeat CPU 0 instructions: 430000001 cycles: 107500077 heartbeat IPC: 4 cumulative IPC: 4 (Simulation time: 0 hr 29 min 13 sec) 
Heartbeat CPU 0 instructions: 440000001 cycles: 110000077 heartbeat IPC: 4 cumulative IPC: 4 (Simulation time: 0 hr 29 min 46 sec) 
Heartbeat CPU 0 instructions: 450000001 cycles: 112500077 heartbeat IPC: 4 cumulative IPC: 4 (Simulation time: 0 hr 30 min 18 sec) 
Heartbeat CPU 0 instructions: 460000001 cycles: 115000077 heartbeat IPC: 4 cumulative IPC: 4 (Simulation time: 0 hr 30 min 51 sec) 
Heartbeat CPU 0 instructions: 470000001 cycles: 117500077 heartbeat IPC: 4 cumulative IPC: 4 (Simulation time: 0 hr 31 min 23 sec) 
Heartbeat CPU 0 instructions: 480000001 cycles: 120000077 heartbeat IPC: 4 cumulative IPC: 4 (Simulation time: 0 hr 31 min 55 sec) 
Heartbeat CPU 0 instructions: 490000001 cycles: 122500077 heartbeat IPC: 4 cumulative IPC: 4 (Simulation time: 0 hr 32 min 28 sec) 
Heartbeat CPU 0 instructions: 500000001 cycles: 125000077 heartbeat IPC: 4 cumulative IPC: 4 (Simulation time: 0 hr 33 min 0 sec) 

Warmup complete CPU 0 instructions: 500000001 cycles: 125000077 (Simulation time: 0 hr 33 min 0 sec) 

Heartbeat CPU 0 instructions: 510000004 cycles: 147762287 heartbeat IPC: 0.439325 cumulative IPC: 0.439325 (Simulation time: 0 hr 35 min 49 sec) 
Heartbeat CPU 0 instructions: 520000004 cycles: 170513053 heartbeat IPC: 0.439546 cumulative IPC: 0.439435 (Simulation time: 0 hr 38 min 38 sec) 
Heartbeat CPU 0 instructions: 530000001 cycles: 193405172 heartbeat IPC: 0.436831 cumulative IPC: 0.438564 (Simulation time: 0 hr 41 min 31 sec) 
Heartbeat CPU 0 instructions: 540000000 cycles: 216369413 heartbeat IPC: 0.43546 cumulative IPC: 0.437784 (Simulation time: 0 hr 46 min 10 sec) 
Heartbeat CPU 0 instructions: 550000004 cycles: 239375816 heartbeat IPC: 0.434662 cumulative IPC: 0.437156 (Simulation time: 0 hr 50 min 37 sec) 
Heartbeat CPU 0 instructions: 560000004 cycles: 262403978 heartbeat IPC: 0.434251 cumulative IPC: 0.436669 (Simulation time: 0 hr 54 min 50 sec) 
Heartbeat CPU 0 instructions: 570000003 cycles: 285299503 heartbeat IPC: 0.436767 cumulative IPC: 0.436683 (Simulation time: 0 hr 58 min 29 sec) 
Heartbeat CPU 0 instructions: 580000002 cycles: 308164949 heartbeat IPC: 0.437341 cumulative IPC: 0.436765 (Simulation time: 1 hr 2 min 36 sec) 
Heartbeat CPU 0 instructions: 590000003 cycles: 331203389 heartbeat IPC: 0.434057 cumulative IPC: 0.436462 (Simulation time: 1 hr 6 min 27 sec) 
Heartbeat CPU 0 instructions: 600000002 cycles: 354231475 heartbeat IPC: 0.434252 cumulative IPC: 0.43624 (Simulation time: 1 hr 10 min 5 sec) 
Heartbeat CPU 0 instructions: 610000003 cycles: 376991600 heartbeat IPC: 0.439365 cumulative IPC: 0.436523 (Simulation time: 1 hr 13 min 29 sec) 
Heartbeat CPU 0 instructions: 620000002 cycles: 399894422 heartbeat IPC: 0.436627 cumulative IPC: 0.436531 (Simulation time: 1 hr 18 min 51 sec) 
Heartbeat CPU 0 instructions: 630000003 cycles: 422942879 heartbeat IPC: 0.433869 cumulative IPC: 0.436325 (Simulation time: 1 hr 21 min 44 sec) 
Heartbeat CPU 0 instructions: 640000000 cycles: 445827703 heartbeat IPC: 0.436971 cumulative IPC: 0.436371 (Simulation time: 1 hr 24 min 34 sec) 
Heartbeat CPU 0 instructions: 650000003 cycles: 468540233 heartbeat IPC: 0.440286 cumulative IPC: 0.43663 (Simulation time: 1 hr 27 min 58 sec) 
Heartbeat CPU 0 instructions: 660000004 cycles: 491275000 heartbeat IPC: 0.439855 cumulative IPC: 0.43683 (Simulation time: 1 hr 32 min 22 sec) 
Heartbeat CPU 0 instructions: 670000003 cycles: 514195747 heartbeat IPC: 0.436286 cumulative IPC: 0.436798 (Simulation time: 1 hr 36 min 56 sec) 
Heartbeat CPU 0 instructions: 680000001 cycles: 536993893 heartbeat IPC: 0.438632 cumulative IPC: 0.4369 (Simulation time: 1 hr 42 min 17 sec) 
Heartbeat CPU 0 instructions: 690000002 cycles: 559995428 heartbeat IPC: 0.434754 cumulative IPC: 0.436786 (Simulation time: 1 hr 45 min 17 sec) 
Heartbeat CPU 0 instructions: 700000004 cycles: 583107503 heartbeat IPC: 0.432674 cumulative IPC: 0.436579 (Simulation time: 1 hr 48 min 12 sec) 
Heartbeat CPU 0 instructions: 710000003 cycles: 606019041 heartbeat IPC: 0.436461 cumulative IPC: 0.436573 (Simulation time: 1 hr 52 min 48 sec) 
Heartbeat CPU 0 instructions: 720000001 cycles: 629078197 heartbeat IPC: 0.433667 cumulative IPC: 0.43644 (Simulation time: 1 hr 57 min 42 sec) 
Heartbeat CPU 0 instructions: 730000002 cycles: 651820141 heartbeat IPC: 0.439716 cumulative IPC: 0.436582 (Simulation time: 2 hr 1 min 0 sec) 
Heartbeat CPU 0 instructions: 740000003 cycles: 674814694 heartbeat IPC: 0.434886 cumulative IPC: 0.436511 (Simulation time: 2 hr 5 min 32 sec) 
Heartbeat CPU 0 instructions: 750000000 cycles: 697723199 heartbeat IPC: 0.436519 cumulative IPC: 0.436511 (Simulation time: 2 hr 8 min 23 sec) 
Heartbeat CPU 0 instructions: 760000000 cycles: 720586606 heartbeat IPC: 0.43738 cumulative IPC: 0.436544 (Simulation time: 2 hr 11 min 13 sec) 
Heartbeat CPU 0 instructions: 770000002 cycles: 743402756 heartbeat IPC: 0.438286 cumulative IPC: 0.436609 (Simulation time: 2 hr 15 min 30 sec) 
Heartbeat CPU 0 instructions: 780000003 cycles: 766339486 heartbeat IPC: 0.435982 cumulative IPC: 0.436586 (Simulation time: 2 hr 20 min 28 sec) 
Heartbeat CPU 0 instructions: 790000004 cycles: 789430738 heartbeat IPC: 0.433064 cumulative IPC: 0.436464 (Simulation time: 2 hr 24 min 20 sec) 
Heartbeat CPU 0 instructions: 800000004 cycles: 812230257 heartbeat IPC: 0.438606 cumulative IPC: 0.436535 (Simulation time: 2 hr 28 min 5 sec) 
Heartbeat CPU 0 instructions: 810000004 cycles: 835046654 heartbeat IPC: 0.438281 cumulative IPC: 0.436591 (Simulation time: 2 hr 31 min 50 sec) 
Heartbeat CPU 0 instructions: 820000003 cycles: 857861629 heartbeat IPC: 0.438309 cumulative IPC: 0.436645 (Simulation time: 2 hr 35 min 25 sec) 
Heartbeat CPU 0 instructions: 830000004 cycles: 880691703 heartbeat IPC: 0.438019 cumulative IPC: 0.436686 (Simulation time: 2 hr 38 min 52 sec) 
Heartbeat CPU 0 instructions: 840000000 cycles: 903486006 heartbeat IPC: 0.438706 cumulative IPC: 0.436745 (Simulation time: 2 hr 42 min 5 sec) 
Heartbeat CPU 0 instructions: 850000003 cycles: 926433931 heartbeat IPC: 0.435769 cumulative IPC: 0.436717 (Simulation time: 2 hr 44 min 58 sec) 
Heartbeat CPU 0 instructions: 860000000 cycles: 949495482 heartbeat IPC: 0.433622 cumulative IPC: 0.436631 (Simulation time: 2 hr 48 min 15 sec) 
Heartbeat CPU 0 instructions: 870000001 cycles: 972474643 heartbeat IPC: 0.435177 cumulative IPC: 0.436591 (Simulation time: 2 hr 51 min 47 sec) 
Heartbeat CPU 0 instructions: 880000000 cycles: 995332394 heartbeat IPC: 0.437488 cumulative IPC: 0.436615 (Simulation time: 2 hr 54 min 34 sec) 
Heartbeat CPU 0 instructions: 890000003 cycles: 1018169925 heartbeat IPC: 0.437876 cumulative IPC: 0.436647 (Simulation time: 2 hr 57 min 20 sec) 
Heartbeat CPU 0 instructions: 900000002 cycles: 1041072250 heartbeat IPC: 0.436637 cumulative IPC: 0.436647 (Simulation time: 3 hr 0 min 13 sec) 
Heartbeat CPU 0 instructions: 910000001 cycles: 1063972283 heartbeat IPC: 0.436681 cumulative IPC: 0.436648 (Simulation time: 3 hr 2 min 59 sec) 
Heartbeat CPU 0 instructions: 920000000 cycles: 1086866142 heartbeat IPC: 0.436798 cumulative IPC: 0.436651 (Simulation time: 3 hr 5 min 48 sec) 
Heartbeat CPU 0 instructions: 930000000 cycles: 1109753298 heartbeat IPC: 0.436926 cumulative IPC: 0.436658 (Simulation time: 3 hr 8 min 36 sec) 
Heartbeat CPU 0 instructions: 940000004 cycles: 1132701282 heartbeat IPC: 0.435768 cumulative IPC: 0.436637 (Simulation time: 3 hr 11 min 23 sec) 
Heartbeat CPU 0 instructions: 950000002 cycles: 1155673824 heartbeat IPC: 0.435302 cumulative IPC: 0.436608 (Simulation time: 3 hr 14 min 10 sec) 
Heartbeat CPU 0 instructions: 960000002 cycles: 1178481204 heartbeat IPC: 0.438455 cumulative IPC: 0.436648 (Simulation time: 3 hr 16 min 55 sec) 
Heartbeat CPU 0 instructions: 970000000 cycles: 1201354014 heartbeat IPC: 0.4372 cumulative IPC: 0.436659 (Simulation time: 3 hr 19 min 40 sec) 
Heartbeat CPU 0 instructions: 980000004 cycles: 1224131702 heartbeat IPC: 0.439026 cumulative IPC: 0.436708 (Simulation time: 3 hr 22 min 24 sec) 
Heartbeat CPU 0 instructions: 990000002 cycles: 1246945548 heartbeat IPC: 0.43833 cumulative IPC: 0.436741 (Simulation time: 3 hr 25 min 8 sec) 
Heartbeat CPU 0 instructions: 1000000001 cycles: 1269838195 heartbeat IPC: 0.436821 cumulative IPC: 0.436743 (Simulation time: 3 hr 27 min 53 sec) 
Heartbeat CPU 0 instructions: 1010000002 cycles: 1292706787 heartbeat IPC: 0.437281 cumulative IPC: 0.436754 (Simulation time: 3 hr 30 min 40 sec) 
Heartbeat CPU 0 instructions: 1020000004 cycles: 1315566012 heartbeat IPC: 0.43746 cumulative IPC: 0.436767 (Simulation time: 3 hr 33 min 26 sec) 
Heartbeat CPU 0 instructions: 1030000000 cycles: 1338718698 heartbeat IPC: 0.431915 cumulative IPC: 0.436675 (Simulation time: 3 hr 36 min 13 sec) 
Heartbeat CPU 0 instructions: 1040000000 cycles: 1361856910 heartbeat IPC: 0.432186 cumulative IPC: 0.436591 (Simulation time: 3 hr 39 min 0 sec) 
Heartbeat CPU 0 instructions: 1050000001 cycles: 1384746193 heartbeat IPC: 0.436886 cumulative IPC: 0.436596 (Simulation time: 3 hr 41 min 46 sec) 
Heartbeat CPU 0 instructions: 1060000001 cycles: 1407591970 heartbeat IPC: 0.437718 cumulative IPC: 0.436616 (Simulation time: 3 hr 44 min 31 sec) 
Heartbeat CPU 0 instructions: 1070000000 cycles: 1430439227 heartbeat IPC: 0.437689 cumulative IPC: 0.436635 (Simulation time: 3 hr 47 min 15 sec) 
Heartbeat CPU 0 instructions: 1080000001 cycles: 1453312663 heartbeat IPC: 0.437188 cumulative IPC: 0.436644 (Simulation time: 3 hr 50 min 0 sec) 
Heartbeat CPU 0 instructions: 1090000004 cycles: 1476133226 heartbeat IPC: 0.438201 cumulative IPC: 0.436671 (Simulation time: 3 hr 52 min 45 sec) 
Heartbeat CPU 0 instructions: 1100000000 cycles: 1499115218 heartbeat IPC: 0.435123 cumulative IPC: 0.436645 (Simulation time: 3 hr 55 min 30 sec) 
Heartbeat CPU 0 instructions: 1110000002 cycles: 1522020140 heartbeat IPC: 0.436587 cumulative IPC: 0.436644 (Simulation time: 3 hr 58 min 14 sec) 
Heartbeat CPU 0 instructions: 1120000004 cycles: 1545082174 heartbeat IPC: 0.433613 cumulative IPC: 0.436594 (Simulation time: 4 hr 1 min 1 sec) 
Heartbeat CPU 0 instructions: 1130000001 cycles: 1567786512 heartbeat IPC: 0.440444 cumulative IPC: 0.436655 (Simulation time: 4 hr 3 min 45 sec) 
Heartbeat CPU 0 instructions: 1140000000 cycles: 1590736908 heartbeat IPC: 0.435722 cumulative IPC: 0.43664 (Simulation time: 4 hr 6 min 30 sec) 
Heartbeat CPU 0 instructions: 1150000001 cycles: 1613625791 heartbeat IPC: 0.436893 cumulative IPC: 0.436644 (Simulation time: 4 hr 9 min 15 sec) 
Heartbeat CPU 0 instructions: 1160000001 cycles: 1636492849 heartbeat IPC: 0.43731 cumulative IPC: 0.436654 (Simulation time: 4 hr 11 min 59 sec) 
Heartbeat CPU 0 instructions: 1170000002 cycles: 1659393775 heartbeat IPC: 0.436664 cumulative IPC: 0.436655 (Simulation time: 4 hr 14 min 44 sec) 
Heartbeat CPU 0 instructions: 1180000000 cycles: 1682409216 heartbeat IPC: 0.434491 cumulative IPC: 0.436623 (Simulation time: 4 hr 17 min 29 sec) 
Heartbeat CPU 0 instructions: 1190000001 cycles: 1705370149 heartbeat IPC: 0.435522 cumulative IPC: 0.436607 (Simulation time: 4 hr 20 min 15 sec) 
Heartbeat CPU 0 instructions: 1200000002 cycles: 1728061386 heartbeat IPC: 0.440699 cumulative IPC: 0.436665 (Simulation time: 4 hr 22 min 59 sec) 
Heartbeat CPU 0 instructions: 1210000003 cycles: 1751136684 heartbeat IPC: 0.433364 cumulative IPC: 0.436618 (Simulation time: 4 hr 25 min 45 sec) 
Heartbeat CPU 0 instructions: 1220000000 cycles: 1774053352 heartbeat IPC: 0.436363 cumulative IPC: 0.436614 (Simulation time: 4 hr 28 min 30 sec) 
Heartbeat CPU 0 instructions: 1230000001 cycles: 1797038394 heartbeat IPC: 0.435066 cumulative IPC: 0.436593 (Simulation time: 4 hr 31 min 15 sec) 
Heartbeat CPU 0 instructions: 1240000000 cycles: 1819900721 heartbeat IPC: 0.437401 cumulative IPC: 0.436604 (Simulation time: 4 hr 34 min 0 sec) 
Heartbeat CPU 0 instructions: 1250000003 cycles: 1842650139 heartbeat IPC: 0.439572 cumulative IPC: 0.436643 (Simulation time: 4 hr 36 min 44 sec) 
Heartbeat CPU 0 instructions: 1260000001 cycles: 1865559683 heartbeat IPC: 0.436499 cumulative IPC: 0.436641 (Simulation time: 4 hr 39 min 28 sec) 
Heartbeat CPU 0 instructions: 1270000001 cycles: 1888396131 heartbeat IPC: 0.437896 cumulative IPC: 0.436657 (Simulation time: 4 hr 42 min 12 sec) 
Heartbeat CPU 0 instructions: 1280000002 cycles: 1911348758 heartbeat IPC: 0.43568 cumulative IPC: 0.436645 (Simulation time: 4 hr 44 min 57 sec) 
Heartbeat CPU 0 instructions: 1290000003 cycles: 1934380441 heartbeat IPC: 0.434185 cumulative IPC: 0.436614 (Simulation time: 4 hr 47 min 43 sec) 
Heartbeat CPU 0 instructions: 1300000001 cycles: 1957359790 heartbeat IPC: 0.435173 cumulative IPC: 0.436595 (Simulation time: 4 hr 50 min 28 sec) 
Heartbeat CPU 0 instructions: 1310000002 cycles: 1980134743 heartbeat IPC: 0.439079 cumulative IPC: 0.436626 (Simulation time: 4 hr 53 min 13 sec) 
Heartbeat CPU 0 instructions: 1320000002 cycles: 2002962648 heartbeat IPC: 0.43806 cumulative IPC: 0.436643 (Simulation time: 4 hr 55 min 59 sec) 
Heartbeat CPU 0 instructions: 1330000003 cycles: 2025799461 heartbeat IPC: 0.43789 cumulative IPC: 0.436658 (Simulation time: 4 hr 58 min 43 sec) 
Heartbeat CPU 0 instructions: 1340000001 cycles: 2048664759 heartbeat IPC: 0.437344 cumulative IPC: 0.436667 (Simulation time: 5 hr 1 min 28 sec) 
Heartbeat CPU 0 instructions: 1350000002 cycles: 2071533252 heartbeat IPC: 0.437283 cumulative IPC: 0.436674 (Simulation time: 5 hr 4 min 13 sec) 
Heartbeat CPU 0 instructions: 1360000003 cycles: 2094528155 heartbeat IPC: 0.434879 cumulative IPC: 0.436653 (Simulation time: 5 hr 6 min 59 sec) 
Heartbeat CPU 0 instructions: 1370000002 cycles: 2117433787 heartbeat IPC: 0.436574 cumulative IPC: 0.436652 (Simulation time: 5 hr 9 min 45 sec) 
Heartbeat CPU 0 instructions: 1380000001 cycles: 2140347593 heartbeat IPC: 0.436418 cumulative IPC: 0.436649 (Simulation time: 5 hr 12 min 30 sec) 
Heartbeat CPU 0 instructions: 1390000002 cycles: 2163443078 heartbeat IPC: 0.432985 cumulative IPC: 0.436608 (Simulation time: 5 hr 15 min 16 sec) 
Heartbeat CPU 0 instructions: 1400000003 cycles: 2186410409 heartbeat IPC: 0.435401 cumulative IPC: 0.436594 (Simulation time: 5 hr 18 min 1 sec) 
Heartbeat CPU 0 instructions: 1410000004 cycles: 2209164059 heartbeat IPC: 0.43949 cumulative IPC: 0.436626 (Simulation time: 5 hr 20 min 45 sec) 
Heartbeat CPU 0 instructions: 1420000000 cycles: 2231968895 heartbeat IPC: 0.438503 cumulative IPC: 0.436646 (Simulation time: 5 hr 23 min 31 sec) 
Heartbeat CPU 0 instructions: 1430000002 cycles: 2254788459 heartbeat IPC: 0.438221 cumulative IPC: 0.436663 (Simulation time: 5 hr 26 min 17 sec) 
Heartbeat CPU 0 instructions: 1440000003 cycles: 2277674919 heartbeat IPC: 0.43694 cumulative IPC: 0.436666 (Simulation time: 5 hr 29 min 2 sec) 
Heartbeat CPU 0 instructions: 1450000004 cycles: 2300621601 heartbeat IPC: 0.435793 cumulative IPC: 0.436657 (Simulation time: 5 hr 31 min 49 sec) 
Heartbeat CPU 0 instructions: 1460000000 cycles: 2323562368 heartbeat IPC: 0.435905 cumulative IPC: 0.436649 (Simulation time: 5 hr 34 min 34 sec) 
Heartbeat CPU 0 instructions: 1470000001 cycles: 2346583793 heartbeat IPC: 0.434378 cumulative IPC: 0.436625 (Simulation time: 5 hr 37 min 21 sec) 
Heartbeat CPU 0 instructions: 1480000000 cycles: 2369416572 heartbeat IPC: 0.437967 cumulative IPC: 0.436639 (Simulation time: 5 hr 40 min 5 sec) 
Heartbeat CPU 0 instructions: 1490000004 cycles: 2392364428 heartbeat IPC: 0.435771 cumulative IPC: 0.43663 (Simulation time: 5 hr 42 min 53 sec) 
Heartbeat CPU 0 instructions: 1500000000 cycles: 2415380154 heartbeat IPC: 0.434485 cumulative IPC: 0.436609 (Simulation time: 5 hr 45 min 39 sec) 
Heartbeat CPU 0 instructions: 1510000003 cycles: 2438080657 heartbeat IPC: 0.440519 cumulative IPC: 0.436647 (Simulation time: 5 hr 48 min 24 sec) 
Heartbeat CPU 0 instructions: 1520000004 cycles: 2461171510 heartbeat IPC: 0.433072 cumulative IPC: 0.436612 (Simulation time: 5 hr 51 min 12 sec) 
Heartbeat CPU 0 instructions: 1530000004 cycles: 2484390246 heartbeat IPC: 0.430687 cumulative IPC: 0.436553 (Simulation time: 5 hr 53 min 58 sec) 
Heartbeat CPU 0 instructions: 1540000000 cycles: 2507126123 heartbeat IPC: 0.439833 cumulative IPC: 0.436585 (Simulation time: 5 hr 56 min 43 sec) 
Heartbeat CPU 0 instructions: 1550000003 cycles: 2529920740 heartbeat IPC: 0.4387 cumulative IPC: 0.436605 (Simulation time: 5 hr 59 min 29 sec) 
Heartbeat CPU 0 instructions: 1560000001 cycles: 2552832622 heartbeat IPC: 0.436455 cumulative IPC: 0.436603 (Simulation time: 6 hr 2 min 13 sec) 
Heartbeat CPU 0 instructions: 1570000003 cycles: 2575671976 heartbeat IPC: 0.437841 cumulative IPC: 0.436615 (Simulation time: 6 hr 4 min 58 sec) 
Heartbeat CPU 0 instructions: 1580000000 cycles: 2598683949 heartbeat IPC: 0.434556 cumulative IPC: 0.436596 (Simulation time: 6 hr 7 min 44 sec) 
Heartbeat CPU 0 instructions: 1590000003 cycles: 2621529901 heartbeat IPC: 0.437714 cumulative IPC: 0.436606 (Simulation time: 6 hr 10 min 29 sec) 
Heartbeat CPU 0 instructions: 1600000004 cycles: 2644267484 heartbeat IPC: 0.439801 cumulative IPC: 0.436635 (Simulation time: 6 hr 13 min 14 sec) 
Heartbeat CPU 0 instructions: 1610000000 cycles: 2667099778 heartbeat IPC: 0.437976 cumulative IPC: 0.436647 (Simulation time: 6 hr 16 min 0 sec) 
Heartbeat CPU 0 instructions: 1620000004 cycles: 2689970734 heartbeat IPC: 0.437236 cumulative IPC: 0.436652 (Simulation time: 6 hr 18 min 45 sec) 
Heartbeat CPU 0 instructions: 1630000002 cycles: 2712849727 heartbeat IPC: 0.437082 cumulative IPC: 0.436656 (Simulation time: 6 hr 21 min 29 sec) 
Heartbeat CPU 0 instructions: 1640000004 cycles: 2735859169 heartbeat IPC: 0.434604 cumulative IPC: 0.436638 (Simulation time: 6 hr 24 min 16 sec) 
Heartbeat CPU 0 instructions: 1650000000 cycles: 2758590908 heartbeat IPC: 0.439913 cumulative IPC: 0.436666 (Simulation time: 6 hr 27 min 0 sec) 
Heartbeat CPU 0 instructions: 1660000001 cycles: 2781612018 heartbeat IPC: 0.434384 cumulative IPC: 0.436646 (Simulation time: 6 hr 29 min 47 sec) 
Heartbeat CPU 0 instructions: 1670000002 cycles: 2804452083 heartbeat IPC: 0.437827 cumulative IPC: 0.436656 (Simulation time: 6 hr 32 min 34 sec) 
Heartbeat CPU 0 instructions: 1680000003 cycles: 2827426953 heartbeat IPC: 0.435258 cumulative IPC: 0.436645 (Simulation time: 6 hr 35 min 21 sec) 
Heartbeat CPU 0 instructions: 1690000000 cycles: 2850281735 heartbeat IPC: 0.437545 cumulative IPC: 0.436652 (Simulation time: 6 hr 38 min 8 sec) 
Heartbeat CPU 0 instructions: 1700000001 cycles: 2873136391 heartbeat IPC: 0.437548 cumulative IPC: 0.43666 (Simulation time: 6 hr 40 min 53 sec) 
Heartbeat CPU 0 instructions: 1710000004 cycles: 2895869837 heartbeat IPC: 0.439881 cumulative IPC: 0.436686 (Simulation time: 6 hr 43 min 39 sec) 
Heartbeat CPU 0 instructions: 1720000003 cycles: 2918794481 heartbeat IPC: 0.436212 cumulative IPC: 0.436682 (Simulation time: 6 hr 46 min 25 sec) 
Heartbeat CPU 0 instructions: 1730000004 cycles: 2941685600 heartbeat IPC: 0.436851 cumulative IPC: 0.436683 (Simulation time: 6 hr 49 min 10 sec) 
Heartbeat CPU 0 instructions: 1740000001 cycles: 2964601119 heartbeat IPC: 0.436385 cumulative IPC: 0.436681 (Simulation time: 6 hr 51 min 56 sec) 
Heartbeat CPU 0 instructions: 1750000002 cycles: 2987609347 heartbeat IPC: 0.434627 cumulative IPC: 0.436665 (Simulation time: 6 hr 54 min 44 sec) 
Heartbeat CPU 0 instructions: 1760000000 cycles: 3010486464 heartbeat IPC: 0.437118 cumulative IPC: 0.436668 (Simulation time: 6 hr 57 min 30 sec) 
Heartbeat CPU 0 instructions: 1770000004 cycles: 3033335489 heartbeat IPC: 0.437656 cumulative IPC: 0.436676 (Simulation time: 7 hr 0 min 15 sec) 
Heartbeat CPU 0 instructions: 1780000000 cycles: 3056026099 heartbeat IPC: 0.440711 cumulative IPC: 0.436707 (Simulation time: 7 hr 3 min 0 sec) 
Heartbeat CPU 0 instructions: 1790000004 cycles: 3078940101 heartbeat IPC: 0.436415 cumulative IPC: 0.436705 (Simulation time: 7 hr 5 min 46 sec) 
Heartbeat CPU 0 instructions: 1800000000 cycles: 3101709316 heartbeat IPC: 0.439189 cumulative IPC: 0.436724 (Simulation time: 7 hr 8 min 31 sec) 
Heartbeat CPU 0 instructions: 1810000001 cycles: 3124377562 heartbeat IPC: 0.441146 cumulative IPC: 0.436757 (Simulation time: 7 hr 11 min 17 sec) 
Heartbeat CPU 0 instructions: 1820000000 cycles: 3147168052 heartbeat IPC: 0.438779 cumulative IPC: 0.436773 (Simulation time: 7 hr 14 min 1 sec) 
Heartbeat CPU 0 instructions: 1830000000 cycles: 3170221819 heartbeat IPC: 0.433769 cumulative IPC: 0.43675 (Simulation time: 7 hr 16 min 49 sec) 
Heartbeat CPU 0 instructions: 1840000000 cycles: 3193153677 heartbeat IPC: 0.436075 cumulative IPC: 0.436745 (Simulation time: 7 hr 19 min 35 sec) 
Heartbeat CPU 0 instructions: 1850000001 cycles: 3216050328 heartbeat IPC: 0.436745 cumulative IPC: 0.436745 (Simulation time: 7 hr 22 min 21 sec) 
Heartbeat CPU 0 instructions: 1860000002 cycles: 3238881148 heartbeat IPC: 0.438004 cumulative IPC: 0.436754 (Simulation time: 7 hr 25 min 7 sec) 
Heartbeat CPU 0 instructions: 1870000001 cycles: 3261684134 heartbeat IPC: 0.438539 cumulative IPC: 0.436767 (Simulation time: 7 hr 27 min 51 sec) 
Heartbeat CPU 0 instructions: 1880000004 cycles: 3284509276 heartbeat IPC: 0.438114 cumulative IPC: 0.436777 (Simulation time: 7 hr 30 min 36 sec) 
Heartbeat CPU 0 instructions: 1890000000 cycles: 3307475155 heartbeat IPC: 0.435428 cumulative IPC: 0.436767 (Simulation time: 7 hr 33 min 21 sec) 
Heartbeat CPU 0 instructions: 1900000002 cycles: 3330381284 heartbeat IPC: 0.436564 cumulative IPC: 0.436766 (Simulation time: 7 hr 36 min 6 sec) 
Heartbeat CPU 0 instructions: 1910000004 cycles: 3353369490 heartbeat IPC: 0.435006 cumulative IPC: 0.436753 (Simulation time: 7 hr 38 min 51 sec) 
Heartbeat CPU 0 instructions: 1920000004 cycles: 3376197492 heartbeat IPC: 0.438058 cumulative IPC: 0.436762 (Simulation time: 7 hr 41 min 36 sec) 
Heartbeat CPU 0 instructions: 1930000000 cycles: 3399170249 heartbeat IPC: 0.435298 cumulative IPC: 0.436752 (Simulation time: 7 hr 44 min 21 sec) 
Heartbeat CPU 0 instructions: 1940000001 cycles: 3422006640 heartbeat IPC: 0.437898 cumulative IPC: 0.43676 (Simulation time: 7 hr 47 min 5 sec) 
Heartbeat CPU 0 instructions: 1950000003 cycles: 3445187316 heartbeat IPC: 0.431394 cumulative IPC: 0.436722 (Simulation time: 7 hr 49 min 52 sec) 
Heartbeat CPU 0 instructions: 1960000001 cycles: 3468096540 heartbeat IPC: 0.436505 cumulative IPC: 0.436721 (Simulation time: 7 hr 52 min 36 sec) 
Heartbeat CPU 0 instructions: 1970000002 cycles: 3491036135 heartbeat IPC: 0.435928 cumulative IPC: 0.436715 (Simulation time: 7 hr 55 min 21 sec) 
Heartbeat CPU 0 instructions: 1980000001 cycles: 3513845830 heartbeat IPC: 0.43841 cumulative IPC: 0.436727 (Simulation time: 7 hr 58 min 5 sec) 
Heartbeat CPU 0 instructions: 1990000002 cycles: 3536725058 heartbeat IPC: 0.437078 cumulative IPC: 0.436729 (Simulation time: 8 hr 0 min 49 sec) 
*** Reached end of trace: traces/603.bwaves_s-2931B.champsimtrace.xz
Heartbeat CPU 0 instructions: 2000000001 cycles: 3559727820 heartbeat IPC: 0.43473 cumulative IPC: 0.436716 (Simulation time: 8 hr 3 min 34 sec) 
Finished CPU 0 instructions: 1500000000 cycles: 3434727743 cumulative IPC: 0.436716 (Simulation time: 8 hr 3 min 34 sec) 

ChampSim completed all CPUs

Region of Interest Statistics

CPU 0 cumulative IPC: 0.436716 instructions: 1500000000 cycles: 3434727743
cpu0_DTLB TOTAL     ACCESS:  321913078  HIT:  319973159  MISS:    1939919
cpu0_DTLB LOAD      ACCESS:  195824686  HIT:  194704216  MISS:    1120470
cpu0_DTLB RFO       ACCESS:  126088392  HIT:  125268943  MISS:     819449
cpu0_DTLB PREFETCH  ACCESS:          0  HIT:          0  MISS:          0
cpu0_DTLB WRITEBACK ACCESS:          0  HIT:          0  MISS:          0
cpu0_DTLB TRANSLATION ACCESS:          0  HIT:          0  MISS:          0
cpu0_DTLB PREFETCH  REQUESTED:          0  ISSUED:          0  USEFUL:          0  USELESS:          0
cpu0_DTLB AVERAGE MISS LATENCY: 43.9946 cycles
cpu0_ITLB TOTAL     ACCESS:   88271752  HIT:   88271752  MISS:          0
cpu0_ITLB LOAD      ACCESS:   88271752  HIT:   88271752  MISS:          0
cpu0_ITLB RFO       ACCESS:          0  HIT:          0  MISS:          0
cpu0_ITLB PREFETCH  ACCESS:          0  HIT:          0  MISS:          0
cpu0_ITLB WRITEBACK ACCESS:          0  HIT:          0  MISS:          0
cpu0_ITLB TRANSLATION ACCESS:          0  HIT:          0  MISS:          0
cpu0_ITLB PREFETCH  REQUESTED:          0  ISSUED:          0  USEFUL:          0  USELESS:          0
cpu0_ITLB AVERAGE MISS LATENCY: -nan cycles
cpu0_STLB TOTAL     ACCESS:    1939919  HIT:    1620323  MISS:     319596
cpu0_STLB LOAD      ACCESS:    1120470  HIT:     940412  MISS:     180058
cpu0_STLB RFO       ACCESS:     819449  HIT:     679911  MISS:     139538
cpu0_STLB PREFETCH  ACCESS:          0  HIT:          0  MISS:          0
cpu0_STLB WRITEBACK ACCESS:          0  HIT:          0  MISS:          0
cpu0_STLB TRANSLATION ACCESS:          0  HIT:          0  MISS:          0
cpu0_STLB PREFETCH  REQUESTED:          0  ISSUED:          0  USEFUL:          0  USELESS:          0
cpu0_STLB AVERAGE MISS LATENCY: 211.767 cycles
cpu0_L1D TOTAL     ACCESS:  449635350  HIT:  424297915  MISS:   25337435
cpu0_L1D LOAD      ACCESS:  201905158  HIT:  186131257  MISS:   15773901
cpu0_L1D RFO       ACCESS:  247410773  HIT:  238129690  MISS:    9281083
cpu0_L1D PREFETCH  ACCESS:          0  HIT:          0  MISS:          0
cpu0_L1D WRITEBACK ACCESS:          0  HIT:          0  MISS:          0
cpu0_L1D TRANSLATION ACCESS:     319419  HIT:      36968  MISS:     282451
cpu0_L1D PREFETCH  REQUESTED:          0  ISSUED:          0  USEFUL:          0  USELESS:          0
cpu0_L1D AVERAGE MISS LATENCY: 651.564 cycles
cpu0_L2C TOTAL     ACCESS:   34448423  HIT:   12459797  MISS:   21988626
cpu0_L2C LOAD      ACCESS:   15773798  HIT:    2720652  MISS:   13053146
cpu0_L2C RFO       ACCESS:    9025336  HIT:      94572  MISS:    8930764
cpu0_L2C PREFETCH  ACCESS:          0  HIT:          0  MISS:          0
cpu0_L2C WRITEBACK ACCESS:    9366838  HIT:    9362324  MISS:       4514
cpu0_L2C TRANSLATION ACCESS:     282451  HIT:     282249  MISS:        202
cpu0_L2C PREFETCH  REQUESTED:          0  ISSUED:          0  USEFUL:          0  USELESS:          0
cpu0_L2C AVERAGE MISS LATENCY: 738.184 cycles
LLC TOTAL     ACCESS:   30920362  HIT:   10474492  MISS:   20445870
LLC LOAD      ACCESS:   13053146  HIT:    1539672  MISS:   11513474
LLC RFO       ACCESS:    8930764  HIT:          0  MISS:    8930764
LLC PREFETCH  ACCESS:          0  HIT:          0  MISS:          0
LLC WRITEBACK ACCESS:    8936250  HIT:    8934819  MISS:       1431
LLC TRANSLATION ACCESS:        202  HIT:          1  MISS:        201
LLC PREFETCH  REQUESTED:          0  ISSUED:          0  USEFUL:          0  USELESS:          0
LLC AVERAGE MISS LATENCY: 771.304 cycles
~~~~~~~~~~Reuse Distance Profiler output~~~~~~~~~~
0	154525248	6572576
1	45146816	8851648
2	27104752	8471968
3	13085568	8806176
4	9413504	7110848
5	9273712	7581856
6	7169648	5276528
7	4667312	4078064
8	7679968	7252144
9	4919456	3957216
10	3837728	2720496
11	4925488	4208016
12	5084320	2577600
13	6112976	3159584
14	5104784	2492176
15	3688352	1083424
16	3719952	947296
17	3286064	1415280
18	3784320	1479680
19	2224128	1188640
20	2996400	1222960
21	3521216	1810752
22	3161808	1988208
23	4296176	2156896
24	4378288	2206528
25	6806848	4440016
26	7388320	5213184
27	7679440	4364800
28	8605632	6309424
29	8175552	5163696
30	7703680	4792096
31	8461616	4996192
32	8983600	4478256
33	8036624	3952576
34	8660352	4102032
35	6468400	3327152
36	7802688	4309840
37	6291792	4241424
38	8221248	4995648
39	13512288	7091632
40	9044160	5552128
41	5878992	3721776
42	4608160	3735392
43	3208816	2067120
44	3706560	2665264
45	3313728	2571488
46	3240032	2333184
47	3000176	1973952
48	3219984	2133808
49	2681328	2198256
50	2370784	1885584
51	3447280	3176176
52	2512000	2248848
53	2244816	1891376
54	2169936	1801200
55	2037760	1886720
56	3018432	2779616
57	1643024	1541296
58	2927152	2751680
59	2116064	1574144
60	2479856	2070448
61	2015568	1595888
62	2229216	1997440
63	2576352	2299520
64	4949568	3439872
66	5883856	3613296
68	4497312	2548224
70	2462288	1920944
72	1025328	821248
74	1274272	708352
76	1559120	659616
78	1779232	602224
80	1268400	436480
82	1100960	499968
84	1056272	505808
86	874320	599168
88	684432	469488
90	1108272	1036048
92	865440	580688
94	641776	277264
96	521536	494528
98	702512	643616
100	761680	480752
102	481936	276240
104	240432	147760
106	564032	326912
108	425568	341984
110	559424	482464
112	410784	296224
114	393408	231344
116	250592	106176
118	622368	419344
120	451344	324176
122	196224	151936
124	425376	360096
126	801136	799952
128	626336	625920
132	378384	378352
136	438976	438688
140	365728	363968
144	231456	224448
148	261552	257872
152	38496	38032
156	74736	74576
160	172816	170608
164	14912	11456
168	41760	40192
172	3824	2688
176	2048	1088
180	1040	1040
184	64	64
188	32	32
192	0	0
196	0	0
200	0	0
204	0	0
208	0	0
212	64	0
216	16	0
220	0	0
224	0	0
228	0	0
232	0	0
236	0	0
240	0	0
244	0	0
248	0	0
252	0	0
256	0	0
264	0	0
272	0	0
280	0	0
288	0	0
296	0	0
304	0	0
312	0	0
320	0	0
328	0	0
336	0	0
344	0	0
352	0	0
360	0	0
368	0	0
376	0	0
384	0	0
392	0	0
400	0	0
408	0	0
416	0	0
424	0	0
432	0	0
440	0	0
448	0	0
456	0	0
464	0	0
472	0	0
480	0	0
488	0	0
496	0	0
504	0	0
512	0	0
528	0	0
544	0	0
560	0	0
576	0	0
592	0	0
608	0	0
624	0	0
640	0	0
656	0	0
672	0	0
688	2448	2448
704	96832	96832
720	93520	93520
736	182320	182320
752	292288	292288
768	346992	346992
784	150608	150608
800	97888	97888
816	48	48
832	0	0
848	32560	32560
864	66512	66512
880	34976	34976
896	132496	132496
912	145392	145392
928	10560	10560
944	0	0
960	0	0
976	1536	1536
992	184112	184112
1008	291072	291072
1024	729488	729488
1056	132544	132544
1088	245424	245424
1120	330720	330720
1152	127040	127040
1184	1136	1136
1216	63872	63872
1248	70976	70976
1280	0	0
1312	0	0
1344	0	0
1376	0	0
1408	0	0
1440	0	0
1472	0	0
1504	0	0
1536	0	0
1568	0	0
1600	0	0
1632	0	0
1664	0	0
1696	0	0
1728	0	0
1760	1808	1808
1792	224	224
1824	31424	31424
1856	168192	168192
1888	453024	453024
1920	517984	517984
1952	89360	89360
1984	0	0
2016	0	0
2048	528	528
2112	376000	376000
2176	39536	39536
2240	0	0
2304	128	128
2368	3664	3664
2432	0	0
2496	0	0
2560	0	0
2624	1120	1120
2688	0	0
2752	0	0
2816	0	0
2880	0	0
2944	0	0
3008	0	0
3072	0	0
3136	0	0
3200	0	0
3264	0	0
3328	0	0
3392	0	0
3456	0	0
3520	0	0
3584	0	0
3648	0	0
3712	0	0
3776	0	0
3840	0	0
3904	0	0
3968	0	0
4032	0	0
4096	0	0
4224	0	0
4352	0	0
4480	0	0
4608	0	0
4736	0	0
4864	0	0
4992	0	0
5120	0	0
5248	0	0
5376	0	0
5504	0	0
5632	0	0
5760	0	0
5888	0	0
6016	0	0
6144	0	0
6272	0	0
6400	0	0
6528	0	0
6656	0	0
6784	0	0
6912	0	0
7040	0	0
7168	0	0
7296	0	0
7424	0	0
7552	0	0
7680	0	0
7808	0	0
7936	0	0
8064	0	0
8192	0	0
8448	0	0
8704	0	0
8960	0	0
9216	0	0
9472	0	0
9728	0	0
9984	0	0
10240	0	0
10496	0	0
10752	0	0
11008	0	0
11264	0	0
11520	0	0
11776	0	0
12032	0	0
12288	0	0
12544	0	0
12800	0	0
13056	0	0
13312	0	0
13568	0	0
13824	0	0
14080	0	0
14336	0	0
14592	0	0
14848	0	0
15104	0	0
15360	0	0
15616	0	0
15872	0	0
16128	0	0
16384	0	0
16896	0	0
17408	0	0
17920	0	0
18432	0	0
18944	0	0
19456	0	0
19968	0	0
20480	0	0
20992	0	0
21504	0	0
22016	0	0
22528	0	0
23040	0	0
23552	0	0
24064	0	0
24576	0	0
25088	0	0
25600	0	0
26112	0	0
26624	0	0
27136	0	0
27648	0	0
28160	0	0
28672	0	0
29184	0	0
29696	0	0
30208	0	0
30720	0	0
31232	0	0
31744	0	0
32256	0	0
32768	0	0
33792	0	0
34816	0	0
35840	0	0
36864	0	0
37888	0	0
38912	0	0
39936	0	0
40960	0	0
41984	0	0
43008	0	0
44032	0	0
45056	0	0
46080	0	0
47104	0	0
48128	0	0
49152	0	0
50176	0	0
51200	0	0
52224	0	0
53248	0	0
54272	0	0
55296	0	0
56320	0	0
57344	0	0
58368	0	0
59392	0	0
60416	0	0
61440	0	0
62464	0	0
63488	0	0
64512	0	0
65536	0	0
67584	0	0
69632	0	0
71680	0	0
73728	0	0
75776	0	0
77824	0	0
79872	0	0
81920	0	0
83968	0	0
86016	0	0
88064	0	0
90112	0	0
92160	0	0
94208	0	0
96256	0	0
98304	0	0
100352	0	0
102400	0	0
104448	0	0
106496	0	0
108544	0	0
110592	0	0
112640	0	0
114688	31024	31024
116736	1282448	1282448
118784	18784	18784
120832	32	32
122880	32	32
124928	80	80
126976	80	80
129024	64	64
131072	440656	440656
135168	0	0
139264	0	0
143360	0	0
147456	0	0
151552	0	0
155648	0	0
159744	0	0
163840	0	0
167936	0	0
172032	0	0
176128	0	0
180224	0	0
184320	0	0
188416	0	0
192512	0	0
196608	0	0
200704	0	0
204800	0	0
208896	0	0
212992	0	0
217088	0	0
221184	0	0
225280	0	0
229376	0	0
233472	1154944	1154944
237568	94704	94704
241664	48	48
245760	96	96
249856	80	80
253952	112	112
258048	80	80
262144	423056	423056
270336	0	0
278528	0	0
286720	0	0
294912	0	0
303104	0	0
311296	0	0
319488	0	0
327680	0	0
335872	0	0
344064	0	0
352256	0	0
360448	0	0
368640	0	0
376832	0	0
385024	0	0
393216	0	0
401408	0	0
409600	0	0
417792	0	0
425984	0	0
434176	0	0
442368	0	0
450560	0	0
458752	0	0
466944	0	0
475136	0	0
483328	0	0
491520	0	0
499712	0	0
507904	0	0
516096	0	0
524288	0	0
540672	0	0
557056	0	0
573440	0	0
589824	0	0
606208	0	0
622592	0	0
638976	0	0
655360	0	0
671744	0	0
688128	0	0
704512	0	0
720896	0	0
737280	0	0
753664	0	0
770048	0	0
786432	0	0
802816	0	0
819200	0	0
835584	0	0
851968	0	0
868352	0	0
884736	0	0
901120	0	0
917504	0	0
933888	0	0
950272	0	0
966656	0	0
983040	0	0
999424	0	0
1015808	0	0
1032192	0	0
1048576	0	0
1081344	0	0
1114112	0	0
1146880	0	0
1179648	0	0
1212416	0	0
1245184	0	0
1277952	0	0
1310720	0	0
1343488	0	0
1376256	0	0
1409024	0	0
1441792	0	0
1474560	0	0
1507328	0	0
1540096	0	0
1572864	0	0
1605632	0	0
1638400	0	0
1671168	0	0
1703936	0	0
1736704	0	0
1769472	0	0
1802240	0	0
1835008	0	0
1867776	0	0
1900544	0	0
1933312	0	0
1966080	0	0
1998848	0	0
2031616	0	0
2064384	0	0
2097152	0	0
2162688	0	0
2228224	0	0
2293760	0	0
2359296	0	0
2424832	0	0
2490368	0	0
2555904	0	0
2621440	0	0
2686976	0	0
2752512	0	0
2818048	0	0
2883584	0	0
2949120	0	0
3014656	0	0
3080192	0	0
3145728	0	0
3211264	0	0
3276800	0	0
3342336	0	0
3407872	0	0
3473408	0	0
3538944	0	0
3604480	0	0
3670016	0	0
3735552	0	0
3801088	0	0
3866624	0	0
3932160	0	0
3997696	0	0
4063232	0	0
4128768	0	0
4194304	0	0
4325376	0	0
4456448	0	0
4587520	0	0
4718592	0	0
4849664	0	0
4980736	0	0
5111808	0	0
5242880	0	0
5373952	0	0
5505024	0	0
5636096	0	0
5767168	0	0
5898240	0	0
6029312	0	0
6160384	0	0
6291456	0	0
6422528	0	0
6553600	0	0
6684672	0	0
6815744	0	0
6946816	0	0
7077888	0	0
7208960	0	0
7340032	0	0
7471104	0	0
7602176	0	0
7733248	0	0
7864320	0	0
7995392	0	0
8126464	0	0
8257536	0	0
8388608	0	0
8650752	0	0
8912896	0	0
9175040	0	0
9437184	0	0
9699328	0	0
9961472	0	0
10223616	0	0
10485760	0	0
10747904	0	0
11010048	0	0
11272192	0	0
11534336	0	0
11796480	0	0
12058624	0	0
12320768	0	0
12582912	0	0
12845056	0	0
13107200	0	0
13369344	0	0
13631488	0	0
13893632	0	0
14155776	0	0
14417920	0	0
14680064	0	0
14942208	0	0
15204352	27472	27472
15466496	1241168	1241168
15728640	6592	6592
15990784	5856	5856
16252928	5248	5248
16515072	5520	5520
16777216	11408	11408
17301504	396816	396816
17825792	0	0
18350080	0	0
18874368	0	0
19398656	0	0
19922944	0	0
20447232	0	0
20971520	0	0
21495808	0	0
22020096	0	0
22544384	0	0
23068672	0	0
23592960	0	0
24117248	0	0
24641536	0	0
25165824	0	0
25690112	0	0
26214400	0	0
26738688	0	0
27262976	0	0
27787264	0	0
28311552	0	0
28835840	0	0
29360128	0	0
29884416	0	0
30408704	0	0
30932992	1188064	1188064
31457280	10640	10640
31981568	11392	11392
32505856	10496	10496
33030144	11008	11008
33554432	22112	22112
34603008	355168	355168
35651584	0	0
36700160	0	0
37748736	0	0
38797312	0	0
39845888	0	0
40894464	0	0
41943040	0	0
42991616	0	0
44040192	0	0
45088768	0	0
46137344	0	0
47185920	0	0
48234496	0	0
49283072	0	0
50331648	0	0
51380224	0	0
52428800	0	0
53477376	0	0
54525952	0	0
55574528	0	0
56623104	0	0
57671680	0	0
58720256	0	0
59768832	0	0
60817408	0	0
61865984	0	0
62914560	0	0
63963136	0	0
65011712	0	0
66060288	0	0
67108864	0	0
69206016	0	0
71303168	0	0
73400320	0	0
75497472	0	0
77594624	0	0
79691776	0	0
81788928	0	0
83886080	0	0
85983232	0	0
88080384	0	0
90177536	0	0
92274688	0	0
94371840	0	0
96468992	0	0
98566144	0	0
100663296	0	0
102760448	0	0
104857600	0	0
106954752	0	0
109051904	0	0
111149056	0	0
113246208	0	0
115343360	0	0
117440512	0	0
119537664	0	0
121634816	0	0
123731968	0	0
125829120	0	0
127926272	0	0
130023424	0	0
132120576	0	0
134217728	0	0
138412032	0	0
142606336	0	0
146800640	0	0
150994944	0	0
155189248	0	0
159383552	0	0
163577856	0	0
167772160	0	0
171966464	0	0
176160768	0	0
180355072	0	0
184549376	0	0
188743680	0	0
192937984	0	0
197132288	0	0
201326592	0	0
205520896	0	0
209715200	0	0
213909504	0	0
218103808	0	0
222298112	0	0
226492416	0	0
230686720	0	0
234881024	0	0
239075328	0	0
243269632	0	0
247463936	0	0
251658240	0	0
255852544	0	0
260046848	0	0
264241152	0	0
268435456	0	0
276824064	0	0
285212672	0	0
293601280	0	0
301989888	0	0
310378496	0	0
318767104	0	0
327155712	0	0
335544320	0	0
343932928	0	0
352321536	0	0
360710144	0	0
369098752	0	0
377487360	0	0
385875968	0	0
394264576	0	0
402653184	0	0
411041792	0	0
419430400	0	0
427819008	0	0
436207616	0	0
444596224	0	0
452984832	0	0
461373440	0	0
469762048	0	0
478150656	0	0
486539264	0	0
494927872	0	0
503316480	0	0
511705088	0	0
520093696	0	0
528482304	0	0
536870912	0	0
553648128	0	0
570425344	0	0
587202560	0	0
603979776	0	0
620756992	0	0
637534208	0	0
654311424	0	0
671088640	0	0
687865856	0	0
704643072	0	0
721420288	0	0
738197504	0	0
754974720	0	0
771751936	0	0
788529152	0	0
805306368	0	0
822083584	0	0
838860800	0	0
855638016	0	0
872415232	0	0
889192448	0	0
905969664	0	0
922746880	0	0
939524096	0	0
956301312	0	0
973078528	0	0
989855744	0	0
1006632960	0	0
1023410176	0	0
1040187392	0	0
1056964608	0	0
1073741824	0	0
1107296256	0	0
1140850688	0	0
1174405120	0	0
1207959552	0	0
1241513984	0	0
1275068416	0	0
1308622848	0	0
1342177280	0	0
1375731712	0	0
1409286144	0	0
1442840576	0	0
1476395008	0	0
1509949440	0	0
1543503872	0	0
1577058304	0	0
1610612736	0	0
1644167168	0	0
1677721600	0	0
1711276032	0	0
1744830464	0	0
1778384896	0	0
1811939328	0	0
1845493760	0	0
1879048192	0	0
1912602624	0	0
1946157056	0	0
1979711488	0	0
2013265920	0	0
2046820352	0	0
2080374784	0	0
2113929216	0	0
2147483648	0	0
2214592512	0	0
2281701376	0	0
2348810240	0	0
2415919104	0	0
2483027968	0	0
2550136832	0	0
2617245696	0	0
2684354560	0	0
2751463424	0	0
2818572288	0	0
2885681152	0	0
2952790016	0	0
3019898880	0	0
3087007744	0	0
3154116608	0	0
3221225472	0	0
3288334336	0	0
3355443200	0	0
3422552064	0	0
3489660928	0	0
3556769792	0	0
3623878656	0	0
3690987520	0	0
3758096384	0	0
3825205248	0	0
3892314112	0	0
3959422976	0	0
4026531840	0	0
4093640704	0	0
4160749568	0	0
4227858432	0	0
~~~~~~~~~~Reuse Distance Profiler output end~~~~~~~~~~

DRAM Statistics
 CHANNEL 0
 RQ ROW_BUFFER_HIT:      23278  ROW_BUFFER_MISS:   20421158
 DBUS AVG_CONGESTED_CYCLE:     4.0006
 WQ ROW_BUFFER_HIT:      65549  ROW_BUFFER_MISS:    8866938  FULL:          0


CPU 0 Branch Prediction Accuracy: 61.242% MPKI: 3.27119 Average ROB Occupancy at Mispredict: 328.069
Branch type MPKI
BRANCH_DIRECT_JUMP: 0
BRANCH_INDIRECT: 0
BRANCH_CONDITIONAL: 3.27119
BRANCH_DIRECT_CALL: 0
BRANCH_INDIRECT_CALL: 0
BRANCH_RETURN: 0

