
*** ChampSim Multicore Out-of-Order Simulator ***

Warmup Instructions: 500000000
Simulation Instructions: 1500000000
Number of CPUs: 1
Off-chip DRAM Size: 4 GiB Channels: 1 Width: 64-bit Data Rate: 3200 MT/s

VirtualMemory physical capacity: 8588881920 num_ppages: 2096895
VirtualMemory page size: 4096 log2_page_size: 12

CPU 0 runs traces/603.bwaves_s-1740B.champsimtrace.xz
CPU 0 Bimodal branch predictor
Basic BTB sets: 1024 ways: 8 indirect buffer size: 4096 RAS size: 64
Initializing LRU.
Initializing LRU.
Initializing LRU.
Initializing LRU.
Initializing rdLRU.
Initializing LRU.
Initializing LRU.
Heartbeat CPU 0 instructions: 10000001 cycles: 3642288 heartbeat IPC: 2.74553 cumulative IPC: 2.74553 (Simulation time: 0 hr 1 min 3 sec) 
Heartbeat CPU 0 instructions: 20000001 cycles: 7284434 heartbeat IPC: 2.74563 cumulative IPC: 2.74558 (Simulation time: 0 hr 2 min 18 sec) 
Heartbeat CPU 0 instructions: 30000000 cycles: 10926563 heartbeat IPC: 2.74565 cumulative IPC: 2.7456 (Simulation time: 0 hr 3 min 40 sec) 
Heartbeat CPU 0 instructions: 40000000 cycles: 14568701 heartbeat IPC: 2.74564 cumulative IPC: 2.74561 (Simulation time: 0 hr 4 min 59 sec) 
Heartbeat CPU 0 instructions: 50000000 cycles: 18210847 heartbeat IPC: 2.74563 cumulative IPC: 2.74562 (Simulation time: 0 hr 6 min 9 sec) 
Heartbeat CPU 0 instructions: 60000001 cycles: 21852979 heartbeat IPC: 2.74564 cumulative IPC: 2.74562 (Simulation time: 0 hr 7 min 28 sec) 
Heartbeat CPU 0 instructions: 70000001 cycles: 25495116 heartbeat IPC: 2.74564 cumulative IPC: 2.74562 (Simulation time: 0 hr 8 min 34 sec) 
Heartbeat CPU 0 instructions: 80000001 cycles: 29137239 heartbeat IPC: 2.74565 cumulative IPC: 2.74563 (Simulation time: 0 hr 9 min 52 sec) 
Heartbeat CPU 0 instructions: 90000002 cycles: 32779383 heartbeat IPC: 2.74564 cumulative IPC: 2.74563 (Simulation time: 0 hr 11 min 26 sec) 
Heartbeat CPU 0 instructions: 100000002 cycles: 36421524 heartbeat IPC: 2.74564 cumulative IPC: 2.74563 (Simulation time: 0 hr 12 min 32 sec) 
Heartbeat CPU 0 instructions: 110000001 cycles: 40063671 heartbeat IPC: 2.74563 cumulative IPC: 2.74563 (Simulation time: 0 hr 13 min 23 sec) 
Heartbeat CPU 0 instructions: 120000004 cycles: 43705804 heartbeat IPC: 2.74564 cumulative IPC: 2.74563 (Simulation time: 0 hr 14 min 17 sec) 
Heartbeat CPU 0 instructions: 130000003 cycles: 47347956 heartbeat IPC: 2.74563 cumulative IPC: 2.74563 (Simulation time: 0 hr 15 min 10 sec) 
Heartbeat CPU 0 instructions: 140000000 cycles: 50990081 heartbeat IPC: 2.74565 cumulative IPC: 2.74563 (Simulation time: 0 hr 16 min 3 sec) 
Heartbeat CPU 0 instructions: 150000000 cycles: 54632220 heartbeat IPC: 2.74564 cumulative IPC: 2.74563 (Simulation time: 0 hr 16 min 54 sec) 
Heartbeat CPU 0 instructions: 160000001 cycles: 58274353 heartbeat IPC: 2.74564 cumulative IPC: 2.74563 (Simulation time: 0 hr 17 min 46 sec) 
Heartbeat CPU 0 instructions: 170000000 cycles: 61916493 heartbeat IPC: 2.74564 cumulative IPC: 2.74563 (Simulation time: 0 hr 18 min 39 sec) 
Heartbeat CPU 0 instructions: 180000002 cycles: 65558625 heartbeat IPC: 2.74565 cumulative IPC: 2.74563 (Simulation time: 0 hr 19 min 32 sec) 
Heartbeat CPU 0 instructions: 190000001 cycles: 69200752 heartbeat IPC: 2.74565 cumulative IPC: 2.74564 (Simulation time: 0 hr 20 min 25 sec) 
Heartbeat CPU 0 instructions: 200000000 cycles: 72842900 heartbeat IPC: 2.74563 cumulative IPC: 2.74563 (Simulation time: 0 hr 21 min 21 sec) 
Heartbeat CPU 0 instructions: 210000003 cycles: 76485051 heartbeat IPC: 2.74563 cumulative IPC: 2.74563 (Simulation time: 0 hr 22 min 16 sec) 
Heartbeat CPU 0 instructions: 220000003 cycles: 80127186 heartbeat IPC: 2.74564 cumulative IPC: 2.74564 (Simulation time: 0 hr 23 min 11 sec) 
Heartbeat CPU 0 instructions: 230000002 cycles: 83769331 heartbeat IPC: 2.74563 cumulative IPC: 2.74564 (Simulation time: 0 hr 24 min 4 sec) 
Heartbeat CPU 0 instructions: 240000001 cycles: 87411459 heartbeat IPC: 2.74565 cumulative IPC: 2.74564 (Simulation time: 0 hr 24 min 59 sec) 
Heartbeat CPU 0 instructions: 250000001 cycles: 91053591 heartbeat IPC: 2.74564 cumulative IPC: 2.74564 (Simulation time: 0 hr 26 min 4 sec) 
Heartbeat CPU 0 instructions: 260000000 cycles: 94695735 heartbeat IPC: 2.74564 cumulative IPC: 2.74564 (Simulation time: 0 hr 27 min 0 sec) 
Heartbeat CPU 0 instructions: 270000000 cycles: 98337864 heartbeat IPC: 2.74565 cumulative IPC: 2.74564 (Simulation time: 0 hr 27 min 57 sec) 
Heartbeat CPU 0 instructions: 280000000 cycles: 101980011 heartbeat IPC: 2.74563 cumulative IPC: 2.74564 (Simulation time: 0 hr 28 min 59 sec) 
Heartbeat CPU 0 instructions: 290000001 cycles: 105622142 heartbeat IPC: 2.74565 cumulative IPC: 2.74564 (Simulation time: 0 hr 30 min 27 sec) 
Heartbeat CPU 0 instructions: 300000003 cycles: 109264287 heartbeat IPC: 2.74564 cumulative IPC: 2.74564 (Simulation time: 0 hr 31 min 41 sec) 
Heartbeat CPU 0 instructions: 310000004 cycles: 112906414 heartbeat IPC: 2.74565 cumulative IPC: 2.74564 (Simulation time: 0 hr 32 min 57 sec) 
Heartbeat CPU 0 instructions: 320000000 cycles: 116548567 heartbeat IPC: 2.74563 cumulative IPC: 2.74564 (Simulation time: 0 hr 34 min 3 sec) 
Heartbeat CPU 0 instructions: 330000000 cycles: 120190705 heartbeat IPC: 2.74564 cumulative IPC: 2.74564 (Simulation time: 0 hr 34 min 57 sec) 
Heartbeat CPU 0 instructions: 340000002 cycles: 123832847 heartbeat IPC: 2.74564 cumulative IPC: 2.74564 (Simulation time: 0 hr 35 min 50 sec) 
Heartbeat CPU 0 instructions: 350000004 cycles: 127474966 heartbeat IPC: 2.74565 cumulative IPC: 2.74564 (Simulation time: 0 hr 36 min 42 sec) 
Heartbeat CPU 0 instructions: 360000001 cycles: 131117110 heartbeat IPC: 2.74563 cumulative IPC: 2.74564 (Simulation time: 0 hr 37 min 34 sec) 
Heartbeat CPU 0 instructions: 370000002 cycles: 134759242 heartbeat IPC: 2.74564 cumulative IPC: 2.74564 (Simulation time: 0 hr 38 min 26 sec) 
Heartbeat CPU 0 instructions: 380000001 cycles: 138401381 heartbeat IPC: 2.74564 cumulative IPC: 2.74564 (Simulation time: 0 hr 39 min 20 sec) 
Heartbeat CPU 0 instructions: 390000003 cycles: 142043520 heartbeat IPC: 2.74564 cumulative IPC: 2.74564 (Simulation time: 0 hr 40 min 13 sec) 
Heartbeat CPU 0 instructions: 400000002 cycles: 145685666 heartbeat IPC: 2.74563 cumulative IPC: 2.74564 (Simulation time: 0 hr 41 min 6 sec) 
Heartbeat CPU 0 instructions: 410000004 cycles: 149327797 heartbeat IPC: 2.74565 cumulative IPC: 2.74564 (Simulation time: 0 hr 41 min 59 sec) 
Heartbeat CPU 0 instructions: 420000000 cycles: 152969941 heartbeat IPC: 2.74563 cumulative IPC: 2.74564 (Simulation time: 0 hr 42 min 52 sec) 
Heartbeat CPU 0 instructions: 430000001 cycles: 156612077 heartbeat IPC: 2.74564 cumulative IPC: 2.74564 (Simulation time: 0 hr 43 min 45 sec) 
Heartbeat CPU 0 instructions: 440000000 cycles: 160254223 heartbeat IPC: 2.74563 cumulative IPC: 2.74564 (Simulation time: 0 hr 44 min 37 sec) 
Heartbeat CPU 0 instructions: 450000002 cycles: 163896349 heartbeat IPC: 2.74565 cumulative IPC: 2.74564 (Simulation time: 0 hr 45 min 30 sec) 
Heartbeat CPU 0 instructions: 460000001 cycles: 167538482 heartbeat IPC: 2.74564 cumulative IPC: 2.74564 (Simulation time: 0 hr 46 min 24 sec) 
Heartbeat CPU 0 instructions: 470000001 cycles: 171180625 heartbeat IPC: 2.74564 cumulative IPC: 2.74564 (Simulation time: 0 hr 47 min 17 sec) 
Heartbeat CPU 0 instructions: 480000001 cycles: 174822757 heartbeat IPC: 2.74564 cumulative IPC: 2.74564 (Simulation time: 0 hr 48 min 11 sec) 
Heartbeat CPU 0 instructions: 490000002 cycles: 178464902 heartbeat IPC: 2.74564 cumulative IPC: 2.74564 (Simulation time: 0 hr 49 min 5 sec) 
Heartbeat CPU 0 instructions: 500000000 cycles: 182107042 heartbeat IPC: 2.74564 cumulative IPC: 2.74564 (Simulation time: 0 hr 50 min 0 sec) 

Warmup complete CPU 0 instructions: 500000003 cycles: 182107043 (Simulation time: 0 hr 50 min 0 sec) 

Heartbeat CPU 0 instructions: 510000003 cycles: 210464493 heartbeat IPC: 0.352641 cumulative IPC: 0.352641 (Simulation time: 0 hr 54 min 6 sec) 
Heartbeat CPU 0 instructions: 520000002 cycles: 238818184 heartbeat IPC: 0.352688 cumulative IPC: 0.352664 (Simulation time: 0 hr 57 min 18 sec) 
Heartbeat CPU 0 instructions: 530000000 cycles: 267172962 heartbeat IPC: 0.352674 cumulative IPC: 0.352668 (Simulation time: 1 hr 0 min 24 sec) 
Heartbeat CPU 0 instructions: 540000003 cycles: 295518594 heartbeat IPC: 0.352788 cumulative IPC: 0.352698 (Simulation time: 1 hr 3 min 29 sec) 
Heartbeat CPU 0 instructions: 550000001 cycles: 323874727 heartbeat IPC: 0.352657 cumulative IPC: 0.35269 (Simulation time: 1 hr 6 min 35 sec) 
Heartbeat CPU 0 instructions: 560000003 cycles: 352229916 heartbeat IPC: 0.352669 cumulative IPC: 0.352686 (Simulation time: 1 hr 9 min 40 sec) 
Heartbeat CPU 0 instructions: 570000003 cycles: 380590177 heartbeat IPC: 0.352606 cumulative IPC: 0.352675 (Simulation time: 1 hr 12 min 47 sec) 
Heartbeat CPU 0 instructions: 580000003 cycles: 408940391 heartbeat IPC: 0.352731 cumulative IPC: 0.352682 (Simulation time: 1 hr 15 min 53 sec) 
Heartbeat CPU 0 instructions: 590000004 cycles: 437294837 heartbeat IPC: 0.352678 cumulative IPC: 0.352681 (Simulation time: 1 hr 18 min 58 sec) 
Heartbeat CPU 0 instructions: 600000001 cycles: 465649001 heartbeat IPC: 0.352682 cumulative IPC: 0.352681 (Simulation time: 1 hr 22 min 4 sec) 
Heartbeat CPU 0 instructions: 610000000 cycles: 494001544 heartbeat IPC: 0.352702 cumulative IPC: 0.352683 (Simulation time: 1 hr 25 min 21 sec) 
Heartbeat CPU 0 instructions: 620000003 cycles: 522352381 heartbeat IPC: 0.352723 cumulative IPC: 0.352687 (Simulation time: 1 hr 31 min 0 sec) 
Heartbeat CPU 0 instructions: 630000002 cycles: 550705474 heartbeat IPC: 0.352695 cumulative IPC: 0.352687 (Simulation time: 1 hr 35 min 38 sec) 
Heartbeat CPU 0 instructions: 640000002 cycles: 579061807 heartbeat IPC: 0.352655 cumulative IPC: 0.352685 (Simulation time: 1 hr 39 min 47 sec) 
Heartbeat CPU 0 instructions: 650000003 cycles: 607417989 heartbeat IPC: 0.352657 cumulative IPC: 0.352683 (Simulation time: 1 hr 43 min 16 sec) 
Heartbeat CPU 0 instructions: 660000003 cycles: 635769710 heartbeat IPC: 0.352712 cumulative IPC: 0.352685 (Simulation time: 1 hr 48 min 1 sec) 
Heartbeat CPU 0 instructions: 670000003 cycles: 664121611 heartbeat IPC: 0.35271 cumulative IPC: 0.352686 (Simulation time: 1 hr 52 min 37 sec) 
Heartbeat CPU 0 instructions: 680000000 cycles: 692479486 heartbeat IPC: 0.352636 cumulative IPC: 0.352684 (Simulation time: 1 hr 56 min 50 sec) 
Heartbeat CPU 0 instructions: 690000004 cycles: 720838348 heartbeat IPC: 0.352624 cumulative IPC: 0.35268 (Simulation time: 2 hr 0 min 59 sec) 
Heartbeat CPU 0 instructions: 700000001 cycles: 749185056 heartbeat IPC: 0.352775 cumulative IPC: 0.352685 (Simulation time: 2 hr 4 min 8 sec) 
Heartbeat CPU 0 instructions: 710000004 cycles: 777540520 heartbeat IPC: 0.352666 cumulative IPC: 0.352684 (Simulation time: 2 hr 7 min 17 sec) 
Heartbeat CPU 0 instructions: 720000002 cycles: 805896726 heartbeat IPC: 0.352656 cumulative IPC: 0.352683 (Simulation time: 2 hr 11 min 15 sec) 
Heartbeat CPU 0 instructions: 730000002 cycles: 834253001 heartbeat IPC: 0.352656 cumulative IPC: 0.352682 (Simulation time: 2 hr 14 min 38 sec) 
Heartbeat CPU 0 instructions: 740000004 cycles: 862607207 heartbeat IPC: 0.352681 cumulative IPC: 0.352682 (Simulation time: 2 hr 18 min 7 sec) 
Heartbeat CPU 0 instructions: 750000002 cycles: 890959220 heartbeat IPC: 0.352709 cumulative IPC: 0.352683 (Simulation time: 2 hr 23 min 15 sec) 
Heartbeat CPU 0 instructions: 760000002 cycles: 919312878 heartbeat IPC: 0.352688 cumulative IPC: 0.352683 (Simulation time: 2 hr 29 min 15 sec) 
Heartbeat CPU 0 instructions: 770000003 cycles: 947668991 heartbeat IPC: 0.352658 cumulative IPC: 0.352682 (Simulation time: 2 hr 35 min 8 sec) 
Heartbeat CPU 0 instructions: 780000003 cycles: 976023708 heartbeat IPC: 0.352675 cumulative IPC: 0.352682 (Simulation time: 2 hr 40 min 25 sec) 
Heartbeat CPU 0 instructions: 790000004 cycles: 1004375779 heartbeat IPC: 0.352708 cumulative IPC: 0.352683 (Simulation time: 2 hr 44 min 5 sec) 
Heartbeat CPU 0 instructions: 800000000 cycles: 1032727487 heartbeat IPC: 0.352712 cumulative IPC: 0.352684 (Simulation time: 2 hr 47 min 13 sec) 
Heartbeat CPU 0 instructions: 810000003 cycles: 1061082716 heartbeat IPC: 0.352669 cumulative IPC: 0.352683 (Simulation time: 2 hr 50 min 22 sec) 
Heartbeat CPU 0 instructions: 820000001 cycles: 1089436430 heartbeat IPC: 0.352687 cumulative IPC: 0.352683 (Simulation time: 2 hr 53 min 31 sec) 
Heartbeat CPU 0 instructions: 830000003 cycles: 1117788548 heartbeat IPC: 0.352707 cumulative IPC: 0.352684 (Simulation time: 2 hr 56 min 38 sec) 
Heartbeat CPU 0 instructions: 840000003 cycles: 1146141051 heartbeat IPC: 0.352703 cumulative IPC: 0.352685 (Simulation time: 2 hr 59 min 44 sec) 
Heartbeat CPU 0 instructions: 850000003 cycles: 1174493776 heartbeat IPC: 0.3527 cumulative IPC: 0.352685 (Simulation time: 3 hr 2 min 49 sec) 
Heartbeat CPU 0 instructions: 860000003 cycles: 1202850388 heartbeat IPC: 0.352651 cumulative IPC: 0.352684 (Simulation time: 3 hr 5 min 55 sec) 
Heartbeat CPU 0 instructions: 870000004 cycles: 1231203518 heartbeat IPC: 0.352695 cumulative IPC: 0.352684 (Simulation time: 3 hr 8 min 59 sec) 
Heartbeat CPU 0 instructions: 880000003 cycles: 1259556048 heartbeat IPC: 0.352702 cumulative IPC: 0.352685 (Simulation time: 3 hr 12 min 4 sec) 
Heartbeat CPU 0 instructions: 890000000 cycles: 1287904698 heartbeat IPC: 0.35275 cumulative IPC: 0.352687 (Simulation time: 3 hr 15 min 9 sec) 
Heartbeat CPU 0 instructions: 900000004 cycles: 1316259924 heartbeat IPC: 0.352669 cumulative IPC: 0.352686 (Simulation time: 3 hr 18 min 14 sec) 
Heartbeat CPU 0 instructions: 910000002 cycles: 1344620814 heartbeat IPC: 0.352598 cumulative IPC: 0.352684 (Simulation time: 3 hr 21 min 18 sec) 
Heartbeat CPU 0 instructions: 920000003 cycles: 1372974805 heartbeat IPC: 0.352684 cumulative IPC: 0.352684 (Simulation time: 3 hr 24 min 23 sec) 
Heartbeat CPU 0 instructions: 930000003 cycles: 1401320958 heartbeat IPC: 0.352782 cumulative IPC: 0.352686 (Simulation time: 3 hr 27 min 29 sec) 
Heartbeat CPU 0 instructions: 940000004 cycles: 1429685109 heartbeat IPC: 0.352558 cumulative IPC: 0.352683 (Simulation time: 3 hr 30 min 34 sec) 
Heartbeat CPU 0 instructions: 950000002 cycles: 1458040285 heartbeat IPC: 0.352669 cumulative IPC: 0.352683 (Simulation time: 3 hr 33 min 40 sec) 
Heartbeat CPU 0 instructions: 960000004 cycles: 1486396715 heartbeat IPC: 0.352654 cumulative IPC: 0.352682 (Simulation time: 3 hr 36 min 47 sec) 
Heartbeat CPU 0 instructions: 970000003 cycles: 1514748291 heartbeat IPC: 0.352714 cumulative IPC: 0.352683 (Simulation time: 3 hr 39 min 52 sec) 
Heartbeat CPU 0 instructions: 980000004 cycles: 1543104146 heartbeat IPC: 0.352661 cumulative IPC: 0.352683 (Simulation time: 3 hr 42 min 57 sec) 
Heartbeat CPU 0 instructions: 990000004 cycles: 1571459028 heartbeat IPC: 0.352673 cumulative IPC: 0.352682 (Simulation time: 3 hr 46 min 1 sec) 
Heartbeat CPU 0 instructions: 1000000000 cycles: 1599816098 heartbeat IPC: 0.352646 cumulative IPC: 0.352682 (Simulation time: 3 hr 49 min 8 sec) 
Heartbeat CPU 0 instructions: 1010000001 cycles: 1628170657 heartbeat IPC: 0.352677 cumulative IPC: 0.352682 (Simulation time: 3 hr 52 min 15 sec) 
Heartbeat CPU 0 instructions: 1020000002 cycles: 1656525398 heartbeat IPC: 0.352675 cumulative IPC: 0.352681 (Simulation time: 3 hr 55 min 19 sec) 
Heartbeat CPU 0 instructions: 1030000002 cycles: 1684878972 heartbeat IPC: 0.352689 cumulative IPC: 0.352682 (Simulation time: 3 hr 58 min 23 sec) 
Heartbeat CPU 0 instructions: 1040000003 cycles: 1713240243 heartbeat IPC: 0.352594 cumulative IPC: 0.35268 (Simulation time: 4 hr 1 min 28 sec) 
Heartbeat CPU 0 instructions: 1050000003 cycles: 1741600800 heartbeat IPC: 0.352602 cumulative IPC: 0.352679 (Simulation time: 4 hr 4 min 33 sec) 
Heartbeat CPU 0 instructions: 1060000003 cycles: 1769956155 heartbeat IPC: 0.352667 cumulative IPC: 0.352678 (Simulation time: 4 hr 7 min 37 sec) 
Heartbeat CPU 0 instructions: 1070000001 cycles: 1798307610 heartbeat IPC: 0.352716 cumulative IPC: 0.352679 (Simulation time: 4 hr 10 min 42 sec) 
Heartbeat CPU 0 instructions: 1080000002 cycles: 1826661352 heartbeat IPC: 0.352687 cumulative IPC: 0.352679 (Simulation time: 4 hr 13 min 48 sec) 
Heartbeat CPU 0 instructions: 1090000001 cycles: 1855018669 heartbeat IPC: 0.352643 cumulative IPC: 0.352679 (Simulation time: 4 hr 16 min 53 sec) 
Heartbeat CPU 0 instructions: 1100000004 cycles: 1883377193 heartbeat IPC: 0.352628 cumulative IPC: 0.352678 (Simulation time: 4 hr 19 min 57 sec) 
Heartbeat CPU 0 instructions: 1110000003 cycles: 1911728585 heartbeat IPC: 0.352716 cumulative IPC: 0.352678 (Simulation time: 4 hr 23 min 1 sec) 
Heartbeat CPU 0 instructions: 1120000003 cycles: 1940086024 heartbeat IPC: 0.352641 cumulative IPC: 0.352678 (Simulation time: 4 hr 26 min 5 sec) 
Heartbeat CPU 0 instructions: 1130000004 cycles: 1968451626 heartbeat IPC: 0.35254 cumulative IPC: 0.352676 (Simulation time: 4 hr 29 min 10 sec) 
Heartbeat CPU 0 instructions: 1140000004 cycles: 1996806365 heartbeat IPC: 0.352675 cumulative IPC: 0.352675 (Simulation time: 4 hr 32 min 15 sec) 
Heartbeat CPU 0 instructions: 1150000002 cycles: 2025159128 heartbeat IPC: 0.352699 cumulative IPC: 0.352676 (Simulation time: 4 hr 35 min 19 sec) 
Heartbeat CPU 0 instructions: 1160000000 cycles: 2053514888 heartbeat IPC: 0.352662 cumulative IPC: 0.352676 (Simulation time: 4 hr 38 min 23 sec) 
Heartbeat CPU 0 instructions: 1170000000 cycles: 2081869251 heartbeat IPC: 0.352679 cumulative IPC: 0.352676 (Simulation time: 4 hr 41 min 27 sec) 
Heartbeat CPU 0 instructions: 1180000004 cycles: 2110221488 heartbeat IPC: 0.352706 cumulative IPC: 0.352676 (Simulation time: 4 hr 44 min 31 sec) 
Heartbeat CPU 0 instructions: 1190000000 cycles: 2138574028 heartbeat IPC: 0.352702 cumulative IPC: 0.352677 (Simulation time: 4 hr 47 min 35 sec) 
Heartbeat CPU 0 instructions: 1200000003 cycles: 2166929022 heartbeat IPC: 0.352672 cumulative IPC: 0.352676 (Simulation time: 4 hr 50 min 40 sec) 
Heartbeat CPU 0 instructions: 1210000004 cycles: 2195283847 heartbeat IPC: 0.352674 cumulative IPC: 0.352676 (Simulation time: 4 hr 53 min 44 sec) 
Heartbeat CPU 0 instructions: 1220000002 cycles: 2223638898 heartbeat IPC: 0.352671 cumulative IPC: 0.352676 (Simulation time: 4 hr 56 min 47 sec) 
Heartbeat CPU 0 instructions: 1230000003 cycles: 2251992543 heartbeat IPC: 0.352688 cumulative IPC: 0.352677 (Simulation time: 4 hr 59 min 51 sec) 
Heartbeat CPU 0 instructions: 1240000003 cycles: 2280349855 heartbeat IPC: 0.352643 cumulative IPC: 0.352676 (Simulation time: 5 hr 2 min 55 sec) 
Heartbeat CPU 0 instructions: 1250000004 cycles: 2308703664 heartbeat IPC: 0.352686 cumulative IPC: 0.352676 (Simulation time: 5 hr 5 min 59 sec) 
Heartbeat CPU 0 instructions: 1260000004 cycles: 2337054107 heartbeat IPC: 0.352728 cumulative IPC: 0.352677 (Simulation time: 5 hr 9 min 3 sec) 
Heartbeat CPU 0 instructions: 1270000000 cycles: 2365409355 heartbeat IPC: 0.352668 cumulative IPC: 0.352677 (Simulation time: 5 hr 12 min 7 sec) 
Heartbeat CPU 0 instructions: 1280000001 cycles: 2393760903 heartbeat IPC: 0.352714 cumulative IPC: 0.352677 (Simulation time: 5 hr 15 min 10 sec) 
Heartbeat CPU 0 instructions: 1290000004 cycles: 2422116473 heartbeat IPC: 0.352665 cumulative IPC: 0.352677 (Simulation time: 5 hr 18 min 15 sec) 
Heartbeat CPU 0 instructions: 1300000002 cycles: 2450478584 heartbeat IPC: 0.352583 cumulative IPC: 0.352676 (Simulation time: 5 hr 21 min 19 sec) 
Heartbeat CPU 0 instructions: 1310000003 cycles: 2478841389 heartbeat IPC: 0.352574 cumulative IPC: 0.352675 (Simulation time: 5 hr 24 min 24 sec) 
Heartbeat CPU 0 instructions: 1320000003 cycles: 2507191493 heartbeat IPC: 0.352732 cumulative IPC: 0.352675 (Simulation time: 5 hr 27 min 28 sec) 
Heartbeat CPU 0 instructions: 1330000003 cycles: 2535546037 heartbeat IPC: 0.352677 cumulative IPC: 0.352675 (Simulation time: 5 hr 30 min 33 sec) 
Heartbeat CPU 0 instructions: 1340000004 cycles: 2563902990 heartbeat IPC: 0.352647 cumulative IPC: 0.352675 (Simulation time: 5 hr 33 min 37 sec) 
Heartbeat CPU 0 instructions: 1350000004 cycles: 2592260574 heartbeat IPC: 0.352639 cumulative IPC: 0.352675 (Simulation time: 5 hr 36 min 42 sec) 
Heartbeat CPU 0 instructions: 1360000001 cycles: 2620616447 heartbeat IPC: 0.352661 cumulative IPC: 0.352674 (Simulation time: 5 hr 39 min 47 sec) 
Heartbeat CPU 0 instructions: 1370000001 cycles: 2648965964 heartbeat IPC: 0.35274 cumulative IPC: 0.352675 (Simulation time: 5 hr 42 min 51 sec) 
Heartbeat CPU 0 instructions: 1380000004 cycles: 2677312746 heartbeat IPC: 0.352774 cumulative IPC: 0.352676 (Simulation time: 5 hr 45 min 56 sec) 
Heartbeat CPU 0 instructions: 1390000003 cycles: 2705670011 heartbeat IPC: 0.352643 cumulative IPC: 0.352676 (Simulation time: 5 hr 49 min 1 sec) 
Heartbeat CPU 0 instructions: 1400000003 cycles: 2734024294 heartbeat IPC: 0.35268 cumulative IPC: 0.352676 (Simulation time: 5 hr 52 min 5 sec) 
Heartbeat CPU 0 instructions: 1410000004 cycles: 2762379266 heartbeat IPC: 0.352672 cumulative IPC: 0.352676 (Simulation time: 5 hr 55 min 9 sec) 
Heartbeat CPU 0 instructions: 1420000002 cycles: 2790729931 heartbeat IPC: 0.352725 cumulative IPC: 0.352677 (Simulation time: 5 hr 58 min 14 sec) 
Heartbeat CPU 0 instructions: 1430000004 cycles: 2819086548 heartbeat IPC: 0.352651 cumulative IPC: 0.352676 (Simulation time: 6 hr 1 min 18 sec) 
Heartbeat CPU 0 instructions: 1440000003 cycles: 2847441389 heartbeat IPC: 0.352673 cumulative IPC: 0.352676 (Simulation time: 6 hr 4 min 23 sec) 
Heartbeat CPU 0 instructions: 1450000004 cycles: 2875796179 heartbeat IPC: 0.352674 cumulative IPC: 0.352676 (Simulation time: 6 hr 7 min 27 sec) 
Heartbeat CPU 0 instructions: 1460000000 cycles: 2904148350 heartbeat IPC: 0.352707 cumulative IPC: 0.352677 (Simulation time: 6 hr 10 min 32 sec) 
Heartbeat CPU 0 instructions: 1470000000 cycles: 2932507522 heartbeat IPC: 0.35262 cumulative IPC: 0.352676 (Simulation time: 6 hr 13 min 36 sec) 
Heartbeat CPU 0 instructions: 1480000001 cycles: 2960861840 heartbeat IPC: 0.35268 cumulative IPC: 0.352676 (Simulation time: 6 hr 16 min 41 sec) 
Heartbeat CPU 0 instructions: 1490000002 cycles: 2989218190 heartbeat IPC: 0.352655 cumulative IPC: 0.352676 (Simulation time: 6 hr 19 min 45 sec) 
Heartbeat CPU 0 instructions: 1500000003 cycles: 3017569596 heartbeat IPC: 0.352716 cumulative IPC: 0.352676 (Simulation time: 6 hr 22 min 50 sec) 
Heartbeat CPU 0 instructions: 1510000002 cycles: 3045923104 heartbeat IPC: 0.35269 cumulative IPC: 0.352676 (Simulation time: 6 hr 25 min 54 sec) 
Heartbeat CPU 0 instructions: 1520000004 cycles: 3074278272 heartbeat IPC: 0.352669 cumulative IPC: 0.352676 (Simulation time: 6 hr 28 min 59 sec) 
Heartbeat CPU 0 instructions: 1530000004 cycles: 3102634269 heartbeat IPC: 0.352659 cumulative IPC: 0.352676 (Simulation time: 6 hr 32 min 6 sec) 
Heartbeat CPU 0 instructions: 1540000001 cycles: 3131000559 heartbeat IPC: 0.352531 cumulative IPC: 0.352675 (Simulation time: 6 hr 35 min 11 sec) 
Heartbeat CPU 0 instructions: 1550000003 cycles: 3159352787 heartbeat IPC: 0.352706 cumulative IPC: 0.352675 (Simulation time: 6 hr 38 min 17 sec) 
Heartbeat CPU 0 instructions: 1560000000 cycles: 3187707069 heartbeat IPC: 0.35268 cumulative IPC: 0.352675 (Simulation time: 6 hr 41 min 23 sec) 
Heartbeat CPU 0 instructions: 1570000002 cycles: 3216059722 heartbeat IPC: 0.352701 cumulative IPC: 0.352675 (Simulation time: 6 hr 44 min 28 sec) 
Heartbeat CPU 0 instructions: 1580000000 cycles: 3244412520 heartbeat IPC: 0.352699 cumulative IPC: 0.352675 (Simulation time: 6 hr 47 min 33 sec) 
Heartbeat CPU 0 instructions: 1590000003 cycles: 3272766417 heartbeat IPC: 0.352685 cumulative IPC: 0.352676 (Simulation time: 6 hr 50 min 37 sec) 
Heartbeat CPU 0 instructions: 1600000003 cycles: 3301119045 heartbeat IPC: 0.352701 cumulative IPC: 0.352676 (Simulation time: 6 hr 53 min 41 sec) 
Heartbeat CPU 0 instructions: 1610000004 cycles: 3329476049 heartbeat IPC: 0.352647 cumulative IPC: 0.352676 (Simulation time: 6 hr 56 min 46 sec) 
Heartbeat CPU 0 instructions: 1620000004 cycles: 3357836878 heartbeat IPC: 0.352599 cumulative IPC: 0.352675 (Simulation time: 6 hr 59 min 51 sec) 
Heartbeat CPU 0 instructions: 1630000001 cycles: 3386188770 heartbeat IPC: 0.35271 cumulative IPC: 0.352675 (Simulation time: 7 hr 2 min 55 sec) 
Heartbeat CPU 0 instructions: 1640000004 cycles: 3414542023 heartbeat IPC: 0.352693 cumulative IPC: 0.352675 (Simulation time: 7 hr 5 min 59 sec) 
Heartbeat CPU 0 instructions: 1650000004 cycles: 3442899255 heartbeat IPC: 0.352644 cumulative IPC: 0.352675 (Simulation time: 7 hr 9 min 3 sec) 
Heartbeat CPU 0 instructions: 1660000000 cycles: 3471253345 heartbeat IPC: 0.352683 cumulative IPC: 0.352675 (Simulation time: 7 hr 12 min 8 sec) 
Heartbeat CPU 0 instructions: 1670000001 cycles: 3499601728 heartbeat IPC: 0.352754 cumulative IPC: 0.352676 (Simulation time: 7 hr 15 min 13 sec) 
Heartbeat CPU 0 instructions: 1680000004 cycles: 3527954666 heartbeat IPC: 0.352697 cumulative IPC: 0.352676 (Simulation time: 7 hr 18 min 17 sec) 
Heartbeat CPU 0 instructions: 1690000002 cycles: 3556301888 heartbeat IPC: 0.352768 cumulative IPC: 0.352677 (Simulation time: 7 hr 21 min 23 sec) 
Heartbeat CPU 0 instructions: 1700000004 cycles: 3584658237 heartbeat IPC: 0.352655 cumulative IPC: 0.352677 (Simulation time: 7 hr 24 min 26 sec) 
Heartbeat CPU 0 instructions: 1710000003 cycles: 3613015159 heartbeat IPC: 0.352648 cumulative IPC: 0.352676 (Simulation time: 7 hr 27 min 31 sec) 
Heartbeat CPU 0 instructions: 1720000004 cycles: 3641368711 heartbeat IPC: 0.35269 cumulative IPC: 0.352676 (Simulation time: 7 hr 30 min 34 sec) 
Heartbeat CPU 0 instructions: 1730000004 cycles: 3669721050 heartbeat IPC: 0.352705 cumulative IPC: 0.352677 (Simulation time: 7 hr 33 min 38 sec) 
Heartbeat CPU 0 instructions: 1740000000 cycles: 3698077111 heartbeat IPC: 0.352658 cumulative IPC: 0.352676 (Simulation time: 7 hr 36 min 43 sec) 
Heartbeat CPU 0 instructions: 1750000001 cycles: 3726434955 heartbeat IPC: 0.352636 cumulative IPC: 0.352676 (Simulation time: 7 hr 39 min 47 sec) 
Heartbeat CPU 0 instructions: 1760000001 cycles: 3754788443 heartbeat IPC: 0.35269 cumulative IPC: 0.352676 (Simulation time: 7 hr 42 min 52 sec) 
Heartbeat CPU 0 instructions: 1770000000 cycles: 3783137001 heartbeat IPC: 0.352752 cumulative IPC: 0.352677 (Simulation time: 7 hr 45 min 57 sec) 
Heartbeat CPU 0 instructions: 1780000003 cycles: 3811492115 heartbeat IPC: 0.35267 cumulative IPC: 0.352677 (Simulation time: 7 hr 49 min 1 sec) 
Heartbeat CPU 0 instructions: 1790000004 cycles: 3839846709 heartbeat IPC: 0.352677 cumulative IPC: 0.352677 (Simulation time: 7 hr 52 min 4 sec) 
Heartbeat CPU 0 instructions: 1800000004 cycles: 3868203335 heartbeat IPC: 0.352651 cumulative IPC: 0.352677 (Simulation time: 7 hr 55 min 8 sec) 
Heartbeat CPU 0 instructions: 1810000000 cycles: 3896554192 heartbeat IPC: 0.352723 cumulative IPC: 0.352677 (Simulation time: 7 hr 58 min 12 sec) 
Heartbeat CPU 0 instructions: 1820000003 cycles: 3924909052 heartbeat IPC: 0.352673 cumulative IPC: 0.352677 (Simulation time: 8 hr 1 min 15 sec) 
Heartbeat CPU 0 instructions: 1830000000 cycles: 3953264467 heartbeat IPC: 0.352666 cumulative IPC: 0.352677 (Simulation time: 8 hr 4 min 20 sec) 
Heartbeat CPU 0 instructions: 1840000004 cycles: 3981621803 heartbeat IPC: 0.352643 cumulative IPC: 0.352677 (Simulation time: 8 hr 7 min 23 sec) 
Heartbeat CPU 0 instructions: 1850000001 cycles: 4009973686 heartbeat IPC: 0.35271 cumulative IPC: 0.352677 (Simulation time: 8 hr 10 min 28 sec) 
Heartbeat CPU 0 instructions: 1860000000 cycles: 4038325212 heartbeat IPC: 0.352715 cumulative IPC: 0.352677 (Simulation time: 8 hr 13 min 32 sec) 
Heartbeat CPU 0 instructions: 1870000004 cycles: 4066675404 heartbeat IPC: 0.352731 cumulative IPC: 0.352678 (Simulation time: 8 hr 16 min 36 sec) 
Heartbeat CPU 0 instructions: 1880000004 cycles: 4095031441 heartbeat IPC: 0.352659 cumulative IPC: 0.352677 (Simulation time: 8 hr 19 min 40 sec) 
Heartbeat CPU 0 instructions: 1890000003 cycles: 4123386420 heartbeat IPC: 0.352672 cumulative IPC: 0.352677 (Simulation time: 8 hr 22 min 44 sec) 
Heartbeat CPU 0 instructions: 1900000003 cycles: 4151738832 heartbeat IPC: 0.352704 cumulative IPC: 0.352678 (Simulation time: 8 hr 25 min 48 sec) 
Heartbeat CPU 0 instructions: 1910000004 cycles: 4180092378 heartbeat IPC: 0.35269 cumulative IPC: 0.352678 (Simulation time: 8 hr 28 min 52 sec) 
Heartbeat CPU 0 instructions: 1920000004 cycles: 4208446269 heartbeat IPC: 0.352685 cumulative IPC: 0.352678 (Simulation time: 8 hr 31 min 57 sec) 
Heartbeat CPU 0 instructions: 1930000000 cycles: 4236803781 heartbeat IPC: 0.35264 cumulative IPC: 0.352677 (Simulation time: 8 hr 35 min 1 sec) 
Heartbeat CPU 0 instructions: 1940000000 cycles: 4265167107 heartbeat IPC: 0.352568 cumulative IPC: 0.352677 (Simulation time: 8 hr 38 min 6 sec) 
Heartbeat CPU 0 instructions: 1950000000 cycles: 4293519173 heartbeat IPC: 0.352708 cumulative IPC: 0.352677 (Simulation time: 8 hr 41 min 11 sec) 
Heartbeat CPU 0 instructions: 1960000002 cycles: 4321872147 heartbeat IPC: 0.352697 cumulative IPC: 0.352677 (Simulation time: 8 hr 44 min 15 sec) 
Heartbeat CPU 0 instructions: 1970000000 cycles: 4350232150 heartbeat IPC: 0.352609 cumulative IPC: 0.352677 (Simulation time: 8 hr 47 min 19 sec) 
Heartbeat CPU 0 instructions: 1980000000 cycles: 4378586236 heartbeat IPC: 0.352683 cumulative IPC: 0.352677 (Simulation time: 8 hr 50 min 23 sec) 
Heartbeat CPU 0 instructions: 1990000002 cycles: 4406939220 heartbeat IPC: 0.352697 cumulative IPC: 0.352677 (Simulation time: 8 hr 53 min 27 sec) 
*** Reached end of trace: traces/603.bwaves_s-1740B.champsimtrace.xz
Heartbeat CPU 0 instructions: 2000000001 cycles: 4435292475 heartbeat IPC: 0.352693 cumulative IPC: 0.352677 (Simulation time: 8 hr 56 min 31 sec) 
Finished CPU 0 instructions: 1500000002 cycles: 4253185433 cumulative IPC: 0.352677 (Simulation time: 8 hr 56 min 31 sec) 

ChampSim completed all CPUs

Region of Interest Statistics

CPU 0 cumulative IPC: 0.352677 instructions: 1500000002 cycles: 4253185433
cpu0_DTLB TOTAL     ACCESS:  471524380  HIT:  469798555  MISS:    1725825
cpu0_DTLB LOAD      ACCESS:  438193368  HIT:  436760155  MISS:    1433213
cpu0_DTLB RFO       ACCESS:   33331012  HIT:   33038400  MISS:     292612
cpu0_DTLB PREFETCH  ACCESS:          0  HIT:          0  MISS:          0
cpu0_DTLB WRITEBACK ACCESS:          0  HIT:          0  MISS:          0
cpu0_DTLB TRANSLATION ACCESS:          0  HIT:          0  MISS:          0
cpu0_DTLB PREFETCH  REQUESTED:          0  ISSUED:          0  USEFUL:          0  USELESS:          0
cpu0_DTLB AVERAGE MISS LATENCY: 74.5369 cycles
cpu0_ITLB TOTAL     ACCESS:  132214808  HIT:  132214808  MISS:          0
cpu0_ITLB LOAD      ACCESS:  132214808  HIT:  132214808  MISS:          0
cpu0_ITLB RFO       ACCESS:          0  HIT:          0  MISS:          0
cpu0_ITLB PREFETCH  ACCESS:          0  HIT:          0  MISS:          0
cpu0_ITLB WRITEBACK ACCESS:          0  HIT:          0  MISS:          0
cpu0_ITLB TRANSLATION ACCESS:          0  HIT:          0  MISS:          0
cpu0_ITLB PREFETCH  REQUESTED:          0  ISSUED:          0  USEFUL:          0  USELESS:          0
cpu0_ITLB AVERAGE MISS LATENCY: -nan cycles
cpu0_STLB TOTAL     ACCESS:    1725825  HIT:    1280452  MISS:     445373
cpu0_STLB LOAD      ACCESS:    1433213  HIT:     999260  MISS:     433953
cpu0_STLB RFO       ACCESS:     292612  HIT:     281192  MISS:      11420
cpu0_STLB PREFETCH  ACCESS:          0  HIT:          0  MISS:          0
cpu0_STLB WRITEBACK ACCESS:          0  HIT:          0  MISS:          0
cpu0_STLB TRANSLATION ACCESS:          0  HIT:          0  MISS:          0
cpu0_STLB PREFETCH  REQUESTED:          0  ISSUED:          0  USEFUL:          0  USELESS:          0
cpu0_STLB AVERAGE MISS LATENCY: 253.169 cycles
cpu0_L1D TOTAL     ACCESS:  474150111  HIT:  444132223  MISS:   30017888
cpu0_L1D LOAD      ACCESS:  390359333  HIT:  361102403  MISS:   29256930
cpu0_L1D RFO       ACCESS:   83345405  HIT:   82614540  MISS:     730865
cpu0_L1D PREFETCH  ACCESS:          0  HIT:          0  MISS:          0
cpu0_L1D WRITEBACK ACCESS:          0  HIT:          0  MISS:          0
cpu0_L1D TRANSLATION ACCESS:     445373  HIT:     415280  MISS:      30093
cpu0_L1D PREFETCH  REQUESTED:          0  ISSUED:          0  USEFUL:          0  USELESS:          0
cpu0_L1D AVERAGE MISS LATENCY: 1152.45 cycles
cpu0_L2C TOTAL     ACCESS:   30759826  HIT:    2247708  MISS:   28512118
cpu0_L2C LOAD      ACCESS:   29256930  HIT:    1476287  MISS:   27780643
cpu0_L2C RFO       ACCESS:     730865  HIT:          0  MISS:     730865
cpu0_L2C PREFETCH  ACCESS:          0  HIT:          0  MISS:          0
cpu0_L2C WRITEBACK ACCESS:     741938  HIT:     741938  MISS:          0
cpu0_L2C TRANSLATION ACCESS:      30093  HIT:      29483  MISS:        610
cpu0_L2C PREFETCH  REQUESTED:          0  ISSUED:          0  USEFUL:          0  USELESS:          0
cpu0_L2C AVERAGE MISS LATENCY: 1201.28 cycles
LLC TOTAL     ACCESS:   29243325  HIT:     738667  MISS:   28504658
LLC LOAD      ACCESS:   27780643  HIT:       7502  MISS:   27773141
LLC RFO       ACCESS:     730865  HIT:          0  MISS:     730865
LLC PREFETCH  ACCESS:          0  HIT:          0  MISS:          0
LLC WRITEBACK ACCESS:     731207  HIT:     731111  MISS:         96
LLC TRANSLATION ACCESS:        610  HIT:         54  MISS:        556
LLC PREFETCH  REQUESTED:          0  ISSUED:          0  USEFUL:          0  USELESS:          0
LLC AVERAGE MISS LATENCY: 1180.59 cycles
~~~~~~~~~~Reuse Distance Profiler output~~~~~~~~~~
0	53297216	6431056
1	16027344	7471600
2	15914800	8302512
3	14076464	10542880
4	14500096	10806704
5	14989872	11785760
6	20458832	16049424
7	23362944	19146912
8	15068016	13051296
9	22183856	20790016
10	15632560	15288160
11	13244208	12004912
12	13888656	12665072
13	13245168	10961472
14	13669104	12366448
15	18498464	16627200
16	46252944	45894832
17	11158048	10208192
18	8714496	8049456
19	6021680	5710976
20	6210960	5993696
21	3395680	3252464
22	4922128	4643680
23	3575280	3235728
24	4477792	4264288
25	4789072	4768784
26	4062608	3932096
27	4123008	4113648
28	3691456	3534096
29	2510432	2358928
30	2924128	2910672
31	3880672	3828704
32	2958336	2953376
33	2193008	2182864
34	1504064	1359280
35	2399248	1984432
36	1710384	1310672
37	2934224	2760464
38	1946912	1397280
39	3064592	2283056
40	3459664	3058144
41	2440192	2073504
42	1875120	1452272
43	1128800	960112
44	1335712	1199024
45	1181792	1018112
46	2195024	1913136
47	2188208	1906816
48	2709088	2560656
49	2180848	2164480
50	1098464	955472
51	718416	694208
52	1227680	1087504
53	1517888	1380272
54	867040	853616
55	1730256	1591184
56	1734704	1716400
57	2466448	2449648
58	4269600	4254464
59	4345360	4083520
60	2512640	2376208
61	2499520	2489344
62	2769456	2482000
63	3126832	3122048
64	6632448	6465152
66	6029472	5654992
68	7727344	7152304
70	10383360	10166624
72	10994272	10468400
74	8016400	7983328
76	7790192	7378016
78	9112416	8668784
80	15492032	14900656
82	16493152	16124032
84	6975040	6652480
86	6192144	5620640
88	3875856	3318528
90	3975328	3675424
92	1919584	1715184
94	2520832	2266176
96	3605120	3529712
98	7811168	7535120
100	2127984	2000976
102	632720	492032
104	266288	265136
106	393840	392528
108	116624	116224
110	347392	343408
112	5872	5840
114	13120	13120
116	1936	1920
118	2016	2016
120	480	480
122	448	448
124	64	64
126	4016	4000
128	6160	6032
132	2080	2064
136	5488	5488
140	144	144
144	0	0
148	0	0
152	400	400
156	400	400
160	272	272
164	4512	4512
168	0	0
172	0	0
176	0	0
180	0	0
184	0	0
188	0	0
192	0	0
196	0	0
200	0	0
204	0	0
208	0	0
212	0	0
216	0	0
220	0	0
224	0	0
228	0	0
232	0	0
236	0	0
240	0	0
244	0	0
248	0	0
252	0	0
256	0	0
264	0	0
272	0	0
280	0	0
288	0	0
296	0	0
304	0	0
312	16	16
320	0	0
328	512	512
336	1872	1872
344	144752	144752
352	34528	34528
360	369168	369168
368	376640	376640
376	616880	616880
384	366960	366960
392	152608	152608
400	267344	267344
408	5840	5840
416	0	0
424	48	48
432	0	0
440	0	0
448	0	0
456	32	32
464	3680	3680
472	330176	330176
480	347600	347600
488	91024	91024
496	7808	7808
504	16	16
512	0	0
528	0	0
544	0	0
560	0	0
576	0	0
592	0	0
608	0	0
624	0	0
640	0	0
656	0	0
672	0	0
688	0	0
704	0	0
720	0	0
736	0	0
752	0	0
768	0	0
784	0	0
800	0	0
816	0	0
832	0	0
848	0	0
864	0	0
880	0	0
896	0	0
912	0	0
928	0	0
944	0	0
960	0	0
976	0	0
992	0	0
1008	0	0
1024	0	0
1056	0	0
1088	0	0
1120	0	0
1152	0	0
1184	0	0
1216	0	0
1248	0	0
1280	0	0
1312	0	0
1344	0	0
1376	0	0
1408	0	0
1440	0	0
1472	0	0
1504	0	0
1536	0	0
1568	0	0
1600	0	0
1632	0	0
1664	0	0
1696	0	0
1728	0	0
1760	0	0
1792	0	0
1824	0	0
1856	0	0
1888	0	0
1920	0	0
1952	0	0
1984	0	0
2016	0	0
2048	0	0
2112	0	0
2176	0	0
2240	0	0
2304	0	0
2368	0	0
2432	0	0
2496	0	0
2560	0	0
2624	0	0
2688	0	0
2752	0	0
2816	0	0
2880	0	0
2944	0	0
3008	0	0
3072	0	0
3136	0	0
3200	0	0
3264	0	0
3328	0	0
3392	0	0
3456	0	0
3520	0	0
3584	0	0
3648	0	0
3712	0	0
3776	0	0
3840	0	0
3904	0	0
3968	0	0
4032	0	0
4096	0	0
4224	0	0
4352	0	0
4480	0	0
4608	0	0
4736	0	0
4864	0	0
4992	0	0
5120	0	0
5248	0	0
5376	0	0
5504	0	0
5632	0	0
5760	0	0
5888	0	0
6016	0	0
6144	0	0
6272	0	0
6400	0	0
6528	0	0
6656	0	0
6784	0	0
6912	0	0
7040	0	0
7168	0	0
7296	0	0
7424	0	0
7552	0	0
7680	0	0
7808	0	0
7936	0	0
8064	0	0
8192	0	0
8448	0	0
8704	0	0
8960	0	0
9216	0	0
9472	0	0
9728	0	0
9984	0	0
10240	0	0
10496	0	0
10752	0	0
11008	0	0
11264	0	0
11520	0	0
11776	0	0
12032	0	0
12288	0	0
12544	0	0
12800	0	0
13056	0	0
13312	0	0
13568	0	0
13824	0	0
14080	0	0
14336	0	0
14592	0	0
14848	0	0
15104	0	0
15360	0	0
15616	0	0
15872	0	0
16128	0	0
16384	0	0
16896	0	0
17408	0	0
17920	0	0
18432	0	0
18944	0	0
19456	0	0
19968	0	0
20480	0	0
20992	0	0
21504	0	0
22016	0	0
22528	0	0
23040	0	0
23552	0	0
24064	0	0
24576	0	0
25088	0	0
25600	0	0
26112	0	0
26624	0	0
27136	0	0
27648	0	0
28160	0	0
28672	0	0
29184	0	0
29696	0	0
30208	0	0
30720	0	0
31232	0	0
31744	0	0
32256	0	0
32768	0	0
33792	0	0
34816	0	0
35840	0	0
36864	0	0
37888	0	0
38912	0	0
39936	0	0
40960	0	0
41984	1448800	1448800
43008	35680	35680
44032	32	32
45056	16	16
46080	48	48
47104	0	0
48128	32	32
49152	0	0
50176	16	16
51200	16	16
52224	193808	193808
53248	290448	290448
54272	7552	7552
55296	0	0
56320	0	0
57344	0	0
58368	0	0
59392	0	0
60416	0	0
61440	0	0
62464	0	0
63488	0	0
64512	0	0
65536	0	0
67584	0	0
69632	0	0
71680	0	0
73728	0	0
75776	0	0
77824	0	0
79872	0	0
81920	0	0
83968	0	0
86016	0	0
88064	0	0
90112	0	0
92160	0	0
94208	0	0
96256	0	0
98304	0	0
100352	0	0
102400	0	0
104448	0	0
106496	0	0
108544	0	0
110592	0	0
112640	0	0
114688	0	0
116736	0	0
118784	0	0
120832	0	0
122880	0	0
124928	0	0
126976	0	0
129024	0	0
131072	0	0
135168	0	0
139264	0	0
143360	0	0
147456	0	0
151552	0	0
155648	0	0
159744	0	0
163840	0	0
167936	0	0
172032	0	0
176128	0	0
180224	0	0
184320	0	0
188416	0	0
192512	0	0
196608	0	0
200704	0	0
204800	0	0
208896	0	0
212992	0	0
217088	0	0
221184	0	0
225280	0	0
229376	0	0
233472	0	0
237568	0	0
241664	0	0
245760	0	0
249856	0	0
253952	0	0
258048	0	0
262144	0	0
270336	0	0
278528	0	0
286720	0	0
294912	0	0
303104	0	0
311296	0	0
319488	0	0
327680	0	0
335872	0	0
344064	0	0
352256	0	0
360448	0	0
368640	0	0
376832	0	0
385024	0	0
393216	0	0
401408	0	0
409600	0	0
417792	0	0
425984	0	0
434176	0	0
442368	0	0
450560	0	0
458752	0	0
466944	0	0
475136	0	0
483328	0	0
491520	0	0
499712	0	0
507904	0	0
516096	0	0
524288	0	0
540672	0	0
557056	0	0
573440	0	0
589824	0	0
606208	0	0
622592	0	0
638976	0	0
655360	0	0
671744	0	0
688128	0	0
704512	0	0
720896	0	0
737280	0	0
753664	0	0
770048	0	0
786432	0	0
802816	0	0
819200	0	0
835584	0	0
851968	0	0
868352	0	0
884736	0	0
901120	0	0
917504	0	0
933888	0	0
950272	0	0
966656	0	0
983040	0	0
999424	0	0
1015808	0	0
1032192	0	0
1048576	0	0
1081344	0	0
1114112	0	0
1146880	0	0
1179648	0	0
1212416	0	0
1245184	0	0
1277952	0	0
1310720	0	0
1343488	0	0
1376256	0	0
1409024	0	0
1441792	0	0
1474560	0	0
1507328	0	0
1540096	0	0
1572864	0	0
1605632	0	0
1638400	0	0
1671168	0	0
1703936	0	0
1736704	0	0
1769472	0	0
1802240	0	0
1835008	0	0
1867776	0	0
1900544	0	0
1933312	0	0
1966080	0	0
1998848	0	0
2031616	0	0
2064384	0	0
2097152	0	0
2162688	0	0
2228224	0	0
2293760	0	0
2359296	0	0
2424832	0	0
2490368	0	0
2555904	0	0
2621440	0	0
2686976	0	0
2752512	0	0
2818048	0	0
2883584	0	0
2949120	0	0
3014656	0	0
3080192	0	0
3145728	0	0
3211264	0	0
3276800	0	0
3342336	0	0
3407872	0	0
3473408	0	0
3538944	0	0
3604480	0	0
3670016	0	0
3735552	0	0
3801088	0	0
3866624	0	0
3932160	0	0
3997696	0	0
4063232	0	0
4128768	0	0
4194304	0	0
4325376	0	0
4456448	0	0
4587520	0	0
4718592	0	0
4849664	0	0
4980736	0	0
5111808	0	0
5242880	0	0
5373952	0	0
5505024	0	0
5636096	1447728	1447728
5767168	1696	1696
5898240	1568	1568
6029312	1504	1504
6160384	1488	1488
6291456	1808	1808
6422528	1616	1616
6553600	1696	1696
6684672	1408	1408
6815744	1728	1728
6946816	4704	4704
7077888	467056	467056
7208960	0	0
7340032	0	0
7471104	0	0
7602176	0	0
7733248	0	0
7864320	0	0
7995392	0	0
8126464	0	0
8257536	0	0
8388608	0	0
8650752	0	0
8912896	0	0
9175040	0	0
9437184	0	0
9699328	0	0
9961472	0	0
10223616	0	0
10485760	0	0
10747904	0	0
11010048	0	0
11272192	0	0
11534336	0	0
11796480	0	0
12058624	0	0
12320768	0	0
12582912	0	0
12845056	0	0
13107200	0	0
13369344	0	0
13631488	0	0
13893632	0	0
14155776	0	0
14417920	0	0
14680064	0	0
14942208	0	0
15204352	0	0
15466496	0	0
15728640	0	0
15990784	0	0
16252928	0	0
16515072	0	0
16777216	0	0
17301504	0	0
17825792	0	0
18350080	0	0
18874368	0	0
19398656	0	0
19922944	0	0
20447232	0	0
20971520	0	0
21495808	0	0
22020096	0	0
22544384	0	0
23068672	0	0
23592960	0	0
24117248	0	0
24641536	0	0
25165824	0	0
25690112	0	0
26214400	0	0
26738688	0	0
27262976	0	0
27787264	0	0
28311552	0	0
28835840	0	0
29360128	0	0
29884416	0	0
30408704	0	0
30932992	0	0
31457280	0	0
31981568	0	0
32505856	0	0
33030144	0	0
33554432	0	0
34603008	0	0
35651584	0	0
36700160	0	0
37748736	0	0
38797312	0	0
39845888	0	0
40894464	0	0
41943040	0	0
42991616	0	0
44040192	0	0
45088768	0	0
46137344	0	0
47185920	0	0
48234496	0	0
49283072	0	0
50331648	0	0
51380224	0	0
52428800	0	0
53477376	0	0
54525952	0	0
55574528	0	0
56623104	0	0
57671680	0	0
58720256	0	0
59768832	0	0
60817408	0	0
61865984	0	0
62914560	0	0
63963136	0	0
65011712	0	0
66060288	0	0
67108864	0	0
69206016	0	0
71303168	0	0
73400320	0	0
75497472	0	0
77594624	0	0
79691776	0	0
81788928	0	0
83886080	0	0
85983232	0	0
88080384	0	0
90177536	0	0
92274688	0	0
94371840	0	0
96468992	0	0
98566144	0	0
100663296	0	0
102760448	0	0
104857600	0	0
106954752	0	0
109051904	0	0
111149056	0	0
113246208	0	0
115343360	0	0
117440512	0	0
119537664	0	0
121634816	0	0
123731968	0	0
125829120	0	0
127926272	0	0
130023424	0	0
132120576	0	0
134217728	0	0
138412032	0	0
142606336	0	0
146800640	0	0
150994944	0	0
155189248	0	0
159383552	0	0
163577856	0	0
167772160	0	0
171966464	0	0
176160768	0	0
180355072	0	0
184549376	0	0
188743680	0	0
192937984	0	0
197132288	0	0
201326592	0	0
205520896	0	0
209715200	0	0
213909504	0	0
218103808	0	0
222298112	0	0
226492416	0	0
230686720	0	0
234881024	0	0
239075328	0	0
243269632	0	0
247463936	0	0
251658240	0	0
255852544	0	0
260046848	0	0
264241152	0	0
268435456	0	0
276824064	0	0
285212672	0	0
293601280	0	0
301989888	0	0
310378496	0	0
318767104	0	0
327155712	0	0
335544320	0	0
343932928	0	0
352321536	0	0
360710144	0	0
369098752	0	0
377487360	0	0
385875968	0	0
394264576	0	0
402653184	0	0
411041792	0	0
419430400	0	0
427819008	0	0
436207616	0	0
444596224	0	0
452984832	0	0
461373440	0	0
469762048	0	0
478150656	0	0
486539264	0	0
494927872	0	0
503316480	0	0
511705088	0	0
520093696	0	0
528482304	0	0
536870912	0	0
553648128	0	0
570425344	0	0
587202560	0	0
603979776	0	0
620756992	0	0
637534208	0	0
654311424	0	0
671088640	0	0
687865856	0	0
704643072	0	0
721420288	0	0
738197504	0	0
754974720	0	0
771751936	0	0
788529152	0	0
805306368	0	0
822083584	0	0
838860800	0	0
855638016	0	0
872415232	0	0
889192448	0	0
905969664	0	0
922746880	0	0
939524096	0	0
956301312	0	0
973078528	0	0
989855744	0	0
1006632960	0	0
1023410176	0	0
1040187392	0	0
1056964608	0	0
1073741824	0	0
1107296256	0	0
1140850688	0	0
1174405120	0	0
1207959552	0	0
1241513984	0	0
1275068416	0	0
1308622848	0	0
1342177280	0	0
1375731712	0	0
1409286144	0	0
1442840576	0	0
1476395008	0	0
1509949440	0	0
1543503872	0	0
1577058304	0	0
1610612736	0	0
1644167168	0	0
1677721600	0	0
1711276032	0	0
1744830464	0	0
1778384896	0	0
1811939328	0	0
1845493760	0	0
1879048192	0	0
1912602624	0	0
1946157056	0	0
1979711488	0	0
2013265920	0	0
2046820352	0	0
2080374784	0	0
2113929216	0	0
2147483648	0	0
2214592512	0	0
2281701376	0	0
2348810240	0	0
2415919104	0	0
2483027968	0	0
2550136832	0	0
2617245696	0	0
2684354560	0	0
2751463424	0	0
2818572288	0	0
2885681152	0	0
2952790016	0	0
3019898880	0	0
3087007744	0	0
3154116608	0	0
3221225472	0	0
3288334336	0	0
3355443200	0	0
3422552064	0	0
3489660928	0	0
3556769792	0	0
3623878656	0	0
3690987520	0	0
3758096384	0	0
3825205248	0	0
3892314112	0	0
3959422976	0	0
4026531840	0	0
4093640704	0	0
4160749568	0	0
4227858432	0	0
~~~~~~~~~~Reuse Distance Profiler output end~~~~~~~~~~

DRAM Statistics
 CHANNEL 0
 RQ ROW_BUFFER_HIT:       2021  ROW_BUFFER_MISS:   28502541
 DBUS AVG_CONGESTED_CYCLE:    3.99982
 WQ ROW_BUFFER_HIT:     174255  ROW_BUFFER_MISS:     557031  FULL:          0


CPU 0 Branch Prediction Accuracy: 62.4636% MPKI: 9.36962 Average ROB Occupancy at Mispredict: 291.136
Branch type MPKI
BRANCH_DIRECT_JUMP: 0
BRANCH_INDIRECT: 0
BRANCH_CONDITIONAL: 9.36962
BRANCH_DIRECT_CALL: 0
BRANCH_INDIRECT_CALL: 0
BRANCH_RETURN: 0

