
*** ChampSim Multicore Out-of-Order Simulator ***

Warmup Instructions: 500000000
Simulation Instructions: 1500000000
Number of CPUs: 1
Off-chip DRAM Size: 4 GiB Channels: 1 Width: 64-bit Data Rate: 3200 MT/s

VirtualMemory physical capacity: 8588881920 num_ppages: 2096895
VirtualMemory page size: 4096 log2_page_size: 12

CPU 0 runs traces/603.bwaves_s-2609B.champsimtrace.xz
CPU 0 Bimodal branch predictor
Basic BTB sets: 1024 ways: 8 indirect buffer size: 4096 RAS size: 64
Initializing LRU.
Initializing LRU.
Initializing LRU.
Initializing LRU.
Initializing rdLRU.
Initializing LRU.
Initializing LRU.
Heartbeat CPU 0 instructions: 10000000 cycles: 3642290 heartbeat IPC: 2.74553 cumulative IPC: 2.74553 (Simulation time: 0 hr 1 min 0 sec) 
Heartbeat CPU 0 instructions: 20000002 cycles: 7284424 heartbeat IPC: 2.74564 cumulative IPC: 2.74558 (Simulation time: 0 hr 1 min 57 sec) 
Heartbeat CPU 0 instructions: 30000002 cycles: 10926556 heartbeat IPC: 2.74564 cumulative IPC: 2.7456 (Simulation time: 0 hr 2 min 53 sec) 
Heartbeat CPU 0 instructions: 40000001 cycles: 14568702 heartbeat IPC: 2.74563 cumulative IPC: 2.74561 (Simulation time: 0 hr 4 min 27 sec) 
Heartbeat CPU 0 instructions: 50000001 cycles: 18210837 heartbeat IPC: 2.74564 cumulative IPC: 2.74562 (Simulation time: 0 hr 6 min 2 sec) 
Heartbeat CPU 0 instructions: 60000002 cycles: 21852971 heartbeat IPC: 2.74564 cumulative IPC: 2.74562 (Simulation time: 0 hr 7 min 38 sec) 
Heartbeat CPU 0 instructions: 70000002 cycles: 25495109 heartbeat IPC: 2.74564 cumulative IPC: 2.74562 (Simulation time: 0 hr 9 min 13 sec) 
Heartbeat CPU 0 instructions: 80000002 cycles: 29137252 heartbeat IPC: 2.74564 cumulative IPC: 2.74563 (Simulation time: 0 hr 10 min 22 sec) 
Heartbeat CPU 0 instructions: 90000003 cycles: 32779376 heartbeat IPC: 2.74565 cumulative IPC: 2.74563 (Simulation time: 0 hr 11 min 53 sec) 
Heartbeat CPU 0 instructions: 100000003 cycles: 36421527 heartbeat IPC: 2.74563 cumulative IPC: 2.74563 (Simulation time: 0 hr 12 min 49 sec) 
Heartbeat CPU 0 instructions: 110000003 cycles: 40063659 heartbeat IPC: 2.74564 cumulative IPC: 2.74563 (Simulation time: 0 hr 13 min 53 sec) 
Heartbeat CPU 0 instructions: 120000000 cycles: 43705810 heartbeat IPC: 2.74563 cumulative IPC: 2.74563 (Simulation time: 0 hr 14 min 47 sec) 
Heartbeat CPU 0 instructions: 130000003 cycles: 47347942 heartbeat IPC: 2.74565 cumulative IPC: 2.74563 (Simulation time: 0 hr 15 min 46 sec) 
Heartbeat CPU 0 instructions: 140000002 cycles: 50990076 heartbeat IPC: 2.74564 cumulative IPC: 2.74563 (Simulation time: 0 hr 16 min 47 sec) 
Heartbeat CPU 0 instructions: 150000002 cycles: 54632208 heartbeat IPC: 2.74564 cumulative IPC: 2.74563 (Simulation time: 0 hr 17 min 43 sec) 
Heartbeat CPU 0 instructions: 160000002 cycles: 58274351 heartbeat IPC: 2.74564 cumulative IPC: 2.74563 (Simulation time: 0 hr 18 min 36 sec) 
Heartbeat CPU 0 instructions: 170000003 cycles: 61916480 heartbeat IPC: 2.74565 cumulative IPC: 2.74563 (Simulation time: 0 hr 19 min 27 sec) 
Heartbeat CPU 0 instructions: 180000003 cycles: 65558625 heartbeat IPC: 2.74563 cumulative IPC: 2.74563 (Simulation time: 0 hr 20 min 20 sec) 
Heartbeat CPU 0 instructions: 190000002 cycles: 69200767 heartbeat IPC: 2.74564 cumulative IPC: 2.74563 (Simulation time: 0 hr 21 min 13 sec) 
Heartbeat CPU 0 instructions: 200000000 cycles: 72842898 heartbeat IPC: 2.74564 cumulative IPC: 2.74563 (Simulation time: 0 hr 22 min 8 sec) 
Heartbeat CPU 0 instructions: 210000003 cycles: 76485041 heartbeat IPC: 2.74564 cumulative IPC: 2.74564 (Simulation time: 0 hr 23 min 2 sec) 
Heartbeat CPU 0 instructions: 220000001 cycles: 80127186 heartbeat IPC: 2.74563 cumulative IPC: 2.74564 (Simulation time: 0 hr 23 min 57 sec) 
Heartbeat CPU 0 instructions: 230000001 cycles: 83769321 heartbeat IPC: 2.74564 cumulative IPC: 2.74564 (Simulation time: 0 hr 25 min 3 sec) 
Heartbeat CPU 0 instructions: 240000002 cycles: 87411460 heartbeat IPC: 2.74564 cumulative IPC: 2.74564 (Simulation time: 0 hr 26 min 1 sec) 
Heartbeat CPU 0 instructions: 250000001 cycles: 91053590 heartbeat IPC: 2.74565 cumulative IPC: 2.74564 (Simulation time: 0 hr 26 min 57 sec) 
Heartbeat CPU 0 instructions: 260000001 cycles: 94695723 heartbeat IPC: 2.74564 cumulative IPC: 2.74564 (Simulation time: 0 hr 27 min 52 sec) 
Heartbeat CPU 0 instructions: 270000002 cycles: 98337867 heartbeat IPC: 2.74564 cumulative IPC: 2.74564 (Simulation time: 0 hr 28 min 47 sec) 
Heartbeat CPU 0 instructions: 280000003 cycles: 101980000 heartbeat IPC: 2.74564 cumulative IPC: 2.74564 (Simulation time: 0 hr 29 min 43 sec) 
Heartbeat CPU 0 instructions: 290000003 cycles: 105622139 heartbeat IPC: 2.74564 cumulative IPC: 2.74564 (Simulation time: 0 hr 30 min 40 sec) 
Heartbeat CPU 0 instructions: 300000004 cycles: 109264269 heartbeat IPC: 2.74565 cumulative IPC: 2.74564 (Simulation time: 0 hr 31 min 36 sec) 
Heartbeat CPU 0 instructions: 310000001 cycles: 112906422 heartbeat IPC: 2.74563 cumulative IPC: 2.74564 (Simulation time: 0 hr 32 min 42 sec) 
Heartbeat CPU 0 instructions: 320000001 cycles: 116548560 heartbeat IPC: 2.74564 cumulative IPC: 2.74564 (Simulation time: 0 hr 34 min 7 sec) 
Heartbeat CPU 0 instructions: 330000001 cycles: 120190704 heartbeat IPC: 2.74564 cumulative IPC: 2.74564 (Simulation time: 0 hr 35 min 7 sec) 
Heartbeat CPU 0 instructions: 340000001 cycles: 123832835 heartbeat IPC: 2.74565 cumulative IPC: 2.74564 (Simulation time: 0 hr 36 min 5 sec) 
Heartbeat CPU 0 instructions: 350000002 cycles: 127474981 heartbeat IPC: 2.74563 cumulative IPC: 2.74564 (Simulation time: 0 hr 37 min 17 sec) 
Heartbeat CPU 0 instructions: 360000003 cycles: 131117100 heartbeat IPC: 2.74565 cumulative IPC: 2.74564 (Simulation time: 0 hr 38 min 32 sec) 
Heartbeat CPU 0 instructions: 370000002 cycles: 134759238 heartbeat IPC: 2.74564 cumulative IPC: 2.74564 (Simulation time: 0 hr 39 min 51 sec) 
Heartbeat CPU 0 instructions: 380000003 cycles: 138401373 heartbeat IPC: 2.74564 cumulative IPC: 2.74564 (Simulation time: 0 hr 41 min 6 sec) 
Heartbeat CPU 0 instructions: 390000003 cycles: 142043523 heartbeat IPC: 2.74563 cumulative IPC: 2.74564 (Simulation time: 0 hr 42 min 12 sec) 
Heartbeat CPU 0 instructions: 400000001 cycles: 145685668 heartbeat IPC: 2.74563 cumulative IPC: 2.74564 (Simulation time: 0 hr 43 min 24 sec) 
Heartbeat CPU 0 instructions: 410000000 cycles: 149327796 heartbeat IPC: 2.74565 cumulative IPC: 2.74564 (Simulation time: 0 hr 44 min 16 sec) 
Heartbeat CPU 0 instructions: 420000002 cycles: 152969932 heartbeat IPC: 2.74564 cumulative IPC: 2.74564 (Simulation time: 0 hr 45 min 7 sec) 
Heartbeat CPU 0 instructions: 430000001 cycles: 156612080 heartbeat IPC: 2.74563 cumulative IPC: 2.74564 (Simulation time: 0 hr 45 min 57 sec) 
Heartbeat CPU 0 instructions: 440000001 cycles: 160254205 heartbeat IPC: 2.74565 cumulative IPC: 2.74564 (Simulation time: 0 hr 46 min 47 sec) 
Heartbeat CPU 0 instructions: 450000003 cycles: 163896349 heartbeat IPC: 2.74564 cumulative IPC: 2.74564 (Simulation time: 0 hr 47 min 37 sec) 
Heartbeat CPU 0 instructions: 460000001 cycles: 167538485 heartbeat IPC: 2.74564 cumulative IPC: 2.74564 (Simulation time: 0 hr 48 min 29 sec) 
Heartbeat CPU 0 instructions: 470000002 cycles: 171180617 heartbeat IPC: 2.74564 cumulative IPC: 2.74564 (Simulation time: 0 hr 49 min 28 sec) 
Heartbeat CPU 0 instructions: 480000003 cycles: 174822762 heartbeat IPC: 2.74564 cumulative IPC: 2.74564 (Simulation time: 0 hr 50 min 19 sec) 
Heartbeat CPU 0 instructions: 490000003 cycles: 178464905 heartbeat IPC: 2.74564 cumulative IPC: 2.74564 (Simulation time: 0 hr 51 min 10 sec) 
Heartbeat CPU 0 instructions: 500000004 cycles: 182107037 heartbeat IPC: 2.74564 cumulative IPC: 2.74564 (Simulation time: 0 hr 52 min 2 sec) 

Warmup complete CPU 0 instructions: 500000004 cycles: 182107037 (Simulation time: 0 hr 52 min 2 sec) 

Heartbeat CPU 0 instructions: 510000001 cycles: 210478347 heartbeat IPC: 0.352469 cumulative IPC: 0.352469 (Simulation time: 0 hr 55 min 11 sec) 
Heartbeat CPU 0 instructions: 520000002 cycles: 238847830 heartbeat IPC: 0.352491 cumulative IPC: 0.35248 (Simulation time: 0 hr 58 min 21 sec) 
Heartbeat CPU 0 instructions: 530000004 cycles: 267214611 heartbeat IPC: 0.352525 cumulative IPC: 0.352495 (Simulation time: 1 hr 1 min 30 sec) 
Heartbeat CPU 0 instructions: 540000003 cycles: 295580312 heartbeat IPC: 0.352538 cumulative IPC: 0.352506 (Simulation time: 1 hr 4 min 38 sec) 
Heartbeat CPU 0 instructions: 550000000 cycles: 323948984 heartbeat IPC: 0.352501 cumulative IPC: 0.352505 (Simulation time: 1 hr 7 min 44 sec) 
Heartbeat CPU 0 instructions: 560000004 cycles: 352318557 heartbeat IPC: 0.35249 cumulative IPC: 0.352503 (Simulation time: 1 hr 10 min 50 sec) 
Heartbeat CPU 0 instructions: 570000000 cycles: 380690171 heartbeat IPC: 0.352465 cumulative IPC: 0.352497 (Simulation time: 1 hr 15 min 59 sec) 
Heartbeat CPU 0 instructions: 580000003 cycles: 409062064 heartbeat IPC: 0.352462 cumulative IPC: 0.352493 (Simulation time: 1 hr 19 min 23 sec) 
Heartbeat CPU 0 instructions: 590000001 cycles: 437431210 heartbeat IPC: 0.352496 cumulative IPC: 0.352493 (Simulation time: 1 hr 22 min 34 sec) 
Heartbeat CPU 0 instructions: 600000002 cycles: 465796644 heartbeat IPC: 0.352542 cumulative IPC: 0.352498 (Simulation time: 1 hr 25 min 45 sec) 
Heartbeat CPU 0 instructions: 610000000 cycles: 494162367 heartbeat IPC: 0.352538 cumulative IPC: 0.352502 (Simulation time: 1 hr 28 min 57 sec) 
Heartbeat CPU 0 instructions: 620000003 cycles: 522530118 heartbeat IPC: 0.352513 cumulative IPC: 0.352503 (Simulation time: 1 hr 32 min 7 sec) 
Heartbeat CPU 0 instructions: 630000004 cycles: 550900899 heartbeat IPC: 0.352475 cumulative IPC: 0.3525 (Simulation time: 1 hr 35 min 16 sec) 
Heartbeat CPU 0 instructions: 640000001 cycles: 579274646 heartbeat IPC: 0.352438 cumulative IPC: 0.352496 (Simulation time: 1 hr 38 min 23 sec) 
Heartbeat CPU 0 instructions: 650000000 cycles: 607642547 heartbeat IPC: 0.352511 cumulative IPC: 0.352497 (Simulation time: 1 hr 41 min 33 sec) 
Heartbeat CPU 0 instructions: 660000000 cycles: 636010202 heartbeat IPC: 0.352514 cumulative IPC: 0.352498 (Simulation time: 1 hr 45 min 14 sec) 
Heartbeat CPU 0 instructions: 670000000 cycles: 664382108 heartbeat IPC: 0.352461 cumulative IPC: 0.352496 (Simulation time: 1 hr 48 min 35 sec) 
Heartbeat CPU 0 instructions: 680000001 cycles: 692756323 heartbeat IPC: 0.352433 cumulative IPC: 0.352492 (Simulation time: 1 hr 51 min 54 sec) 
Heartbeat CPU 0 instructions: 690000000 cycles: 721124417 heartbeat IPC: 0.352509 cumulative IPC: 0.352493 (Simulation time: 1 hr 55 min 4 sec) 
Heartbeat CPU 0 instructions: 700000001 cycles: 749489171 heartbeat IPC: 0.35255 cumulative IPC: 0.352496 (Simulation time: 1 hr 58 min 16 sec) 
Heartbeat CPU 0 instructions: 710000004 cycles: 777857003 heartbeat IPC: 0.352512 cumulative IPC: 0.352497 (Simulation time: 2 hr 3 min 7 sec) 
Heartbeat CPU 0 instructions: 720000004 cycles: 806234514 heartbeat IPC: 0.352392 cumulative IPC: 0.352492 (Simulation time: 2 hr 7 min 25 sec) 
Heartbeat CPU 0 instructions: 730000000 cycles: 834603504 heartbeat IPC: 0.352497 cumulative IPC: 0.352492 (Simulation time: 2 hr 11 min 35 sec) 
Heartbeat CPU 0 instructions: 740000004 cycles: 862970042 heartbeat IPC: 0.352528 cumulative IPC: 0.352494 (Simulation time: 2 hr 15 min 1 sec) 
Heartbeat CPU 0 instructions: 750000004 cycles: 891337609 heartbeat IPC: 0.352515 cumulative IPC: 0.352495 (Simulation time: 2 hr 18 min 12 sec) 
Heartbeat CPU 0 instructions: 760000000 cycles: 919707652 heartbeat IPC: 0.352484 cumulative IPC: 0.352494 (Simulation time: 2 hr 21 min 24 sec) 
Heartbeat CPU 0 instructions: 770000000 cycles: 948079671 heartbeat IPC: 0.35246 cumulative IPC: 0.352493 (Simulation time: 2 hr 24 min 43 sec) 
Heartbeat CPU 0 instructions: 780000002 cycles: 976449958 heartbeat IPC: 0.352482 cumulative IPC: 0.352493 (Simulation time: 2 hr 27 min 59 sec) 
Heartbeat CPU 0 instructions: 790000002 cycles: 1004817224 heartbeat IPC: 0.352519 cumulative IPC: 0.352493 (Simulation time: 2 hr 31 min 13 sec) 
Heartbeat CPU 0 instructions: 800000000 cycles: 1033185117 heartbeat IPC: 0.352511 cumulative IPC: 0.352494 (Simulation time: 2 hr 34 min 26 sec) 
Heartbeat CPU 0 instructions: 810000003 cycles: 1061556702 heartbeat IPC: 0.352465 cumulative IPC: 0.352493 (Simulation time: 2 hr 37 min 42 sec) 
Heartbeat CPU 0 instructions: 820000000 cycles: 1089926659 heartbeat IPC: 0.352485 cumulative IPC: 0.352493 (Simulation time: 2 hr 40 min 59 sec) 
Heartbeat CPU 0 instructions: 830000004 cycles: 1118294836 heartbeat IPC: 0.352508 cumulative IPC: 0.352493 (Simulation time: 2 hr 44 min 17 sec) 
Heartbeat CPU 0 instructions: 840000000 cycles: 1146662190 heartbeat IPC: 0.352518 cumulative IPC: 0.352494 (Simulation time: 2 hr 47 min 30 sec) 
Heartbeat CPU 0 instructions: 850000000 cycles: 1175035014 heartbeat IPC: 0.35245 cumulative IPC: 0.352493 (Simulation time: 2 hr 50 min 43 sec) 
Heartbeat CPU 0 instructions: 860000001 cycles: 1203404059 heartbeat IPC: 0.352497 cumulative IPC: 0.352493 (Simulation time: 2 hr 53 min 56 sec) 
Heartbeat CPU 0 instructions: 870000000 cycles: 1231773945 heartbeat IPC: 0.352486 cumulative IPC: 0.352493 (Simulation time: 2 hr 57 min 6 sec) 
Heartbeat CPU 0 instructions: 880000002 cycles: 1260140065 heartbeat IPC: 0.352533 cumulative IPC: 0.352494 (Simulation time: 3 hr 0 min 14 sec) 
Heartbeat CPU 0 instructions: 890000000 cycles: 1288511226 heartbeat IPC: 0.352471 cumulative IPC: 0.352493 (Simulation time: 3 hr 3 min 21 sec) 
Heartbeat CPU 0 instructions: 900000004 cycles: 1316879469 heartbeat IPC: 0.352507 cumulative IPC: 0.352494 (Simulation time: 3 hr 6 min 27 sec) 
Heartbeat CPU 0 instructions: 910000000 cycles: 1345254826 heartbeat IPC: 0.352418 cumulative IPC: 0.352492 (Simulation time: 3 hr 9 min 32 sec) 
Heartbeat CPU 0 instructions: 920000000 cycles: 1373622128 heartbeat IPC: 0.352519 cumulative IPC: 0.352492 (Simulation time: 3 hr 12 min 38 sec) 
Heartbeat CPU 0 instructions: 930000001 cycles: 1401986775 heartbeat IPC: 0.352552 cumulative IPC: 0.352494 (Simulation time: 3 hr 15 min 43 sec) 
Heartbeat CPU 0 instructions: 940000000 cycles: 1430363548 heartbeat IPC: 0.352401 cumulative IPC: 0.352492 (Simulation time: 3 hr 18 min 48 sec) 
Heartbeat CPU 0 instructions: 950000001 cycles: 1458734699 heartbeat IPC: 0.352471 cumulative IPC: 0.352491 (Simulation time: 3 hr 21 min 53 sec) 
Heartbeat CPU 0 instructions: 960000000 cycles: 1487102542 heartbeat IPC: 0.352512 cumulative IPC: 0.352492 (Simulation time: 3 hr 24 min 58 sec) 
Heartbeat CPU 0 instructions: 970000001 cycles: 1515469452 heartbeat IPC: 0.352523 cumulative IPC: 0.352492 (Simulation time: 3 hr 28 min 2 sec) 
Heartbeat CPU 0 instructions: 980000000 cycles: 1543844848 heartbeat IPC: 0.352418 cumulative IPC: 0.352491 (Simulation time: 3 hr 31 min 8 sec) 
Heartbeat CPU 0 instructions: 990000002 cycles: 1572214630 heartbeat IPC: 0.352488 cumulative IPC: 0.352491 (Simulation time: 3 hr 34 min 14 sec) 
Heartbeat CPU 0 instructions: 1000000000 cycles: 1600581455 heartbeat IPC: 0.352524 cumulative IPC: 0.352491 (Simulation time: 3 hr 37 min 20 sec) 
Heartbeat CPU 0 instructions: 1010000004 cycles: 1628955055 heartbeat IPC: 0.35244 cumulative IPC: 0.35249 (Simulation time: 3 hr 40 min 27 sec) 
Heartbeat CPU 0 instructions: 1020000004 cycles: 1657321949 heartbeat IPC: 0.352524 cumulative IPC: 0.352491 (Simulation time: 3 hr 43 min 32 sec) 
Heartbeat CPU 0 instructions: 1030000000 cycles: 1685694094 heartbeat IPC: 0.352458 cumulative IPC: 0.35249 (Simulation time: 3 hr 46 min 37 sec) 
Heartbeat CPU 0 instructions: 1040000000 cycles: 1714068205 heartbeat IPC: 0.352434 cumulative IPC: 0.352489 (Simulation time: 3 hr 49 min 43 sec) 
Heartbeat CPU 0 instructions: 1050000000 cycles: 1742445786 heartbeat IPC: 0.352391 cumulative IPC: 0.352488 (Simulation time: 3 hr 52 min 49 sec) 
Heartbeat CPU 0 instructions: 1060000000 cycles: 1770814819 heartbeat IPC: 0.352497 cumulative IPC: 0.352488 (Simulation time: 3 hr 55 min 54 sec) 
Heartbeat CPU 0 instructions: 1070000001 cycles: 1799186823 heartbeat IPC: 0.35246 cumulative IPC: 0.352487 (Simulation time: 3 hr 59 min 0 sec) 
Heartbeat CPU 0 instructions: 1080000003 cycles: 1827555331 heartbeat IPC: 0.352504 cumulative IPC: 0.352488 (Simulation time: 4 hr 2 min 6 sec) 
Heartbeat CPU 0 instructions: 1090000001 cycles: 1855924720 heartbeat IPC: 0.352493 cumulative IPC: 0.352488 (Simulation time: 4 hr 5 min 12 sec) 
Heartbeat CPU 0 instructions: 1100000004 cycles: 1884298882 heartbeat IPC: 0.352433 cumulative IPC: 0.352487 (Simulation time: 4 hr 8 min 18 sec) 
Heartbeat CPU 0 instructions: 1110000000 cycles: 1912668824 heartbeat IPC: 0.352486 cumulative IPC: 0.352487 (Simulation time: 4 hr 11 min 23 sec) 
Heartbeat CPU 0 instructions: 1120000001 cycles: 1941039197 heartbeat IPC: 0.35248 cumulative IPC: 0.352487 (Simulation time: 4 hr 14 min 29 sec) 
Heartbeat CPU 0 instructions: 1130000001 cycles: 1969417661 heartbeat IPC: 0.35238 cumulative IPC: 0.352485 (Simulation time: 4 hr 17 min 35 sec) 
Heartbeat CPU 0 instructions: 1140000004 cycles: 1997787078 heartbeat IPC: 0.352492 cumulative IPC: 0.352485 (Simulation time: 4 hr 20 min 40 sec) 
Heartbeat CPU 0 instructions: 1150000001 cycles: 2026153634 heartbeat IPC: 0.352528 cumulative IPC: 0.352486 (Simulation time: 4 hr 23 min 45 sec) 
Heartbeat CPU 0 instructions: 1160000000 cycles: 2054525328 heartbeat IPC: 0.352464 cumulative IPC: 0.352485 (Simulation time: 4 hr 26 min 51 sec) 
Heartbeat CPU 0 instructions: 1170000001 cycles: 2082883969 heartbeat IPC: 0.352626 cumulative IPC: 0.352487 (Simulation time: 4 hr 29 min 56 sec) 
Heartbeat CPU 0 instructions: 1180000002 cycles: 2111250198 heartbeat IPC: 0.352532 cumulative IPC: 0.352488 (Simulation time: 4 hr 33 min 0 sec) 
Heartbeat CPU 0 instructions: 1190000000 cycles: 2139613991 heartbeat IPC: 0.352562 cumulative IPC: 0.352489 (Simulation time: 4 hr 36 min 5 sec) 
Heartbeat CPU 0 instructions: 1200000001 cycles: 2167980618 heartbeat IPC: 0.352527 cumulative IPC: 0.35249 (Simulation time: 4 hr 39 min 9 sec) 
Heartbeat CPU 0 instructions: 1210000000 cycles: 2196346924 heartbeat IPC: 0.352531 cumulative IPC: 0.35249 (Simulation time: 4 hr 42 min 14 sec) 
Heartbeat CPU 0 instructions: 1220000002 cycles: 2224714296 heartbeat IPC: 0.352518 cumulative IPC: 0.352491 (Simulation time: 4 hr 45 min 18 sec) 
Heartbeat CPU 0 instructions: 1230000000 cycles: 2253078101 heartbeat IPC: 0.352562 cumulative IPC: 0.352492 (Simulation time: 4 hr 48 min 22 sec) 
Heartbeat CPU 0 instructions: 1240000001 cycles: 2281446745 heartbeat IPC: 0.352502 cumulative IPC: 0.352492 (Simulation time: 4 hr 51 min 27 sec) 
Heartbeat CPU 0 instructions: 1250000001 cycles: 2309816023 heartbeat IPC: 0.352494 cumulative IPC: 0.352492 (Simulation time: 4 hr 54 min 32 sec) 
Heartbeat CPU 0 instructions: 1260000000 cycles: 2338180543 heartbeat IPC: 0.352553 cumulative IPC: 0.352493 (Simulation time: 4 hr 57 min 37 sec) 
Heartbeat CPU 0 instructions: 1270000002 cycles: 2366546403 heartbeat IPC: 0.352537 cumulative IPC: 0.352493 (Simulation time: 5 hr 0 min 42 sec) 
Heartbeat CPU 0 instructions: 1280000001 cycles: 2394916074 heartbeat IPC: 0.352489 cumulative IPC: 0.352493 (Simulation time: 5 hr 3 min 48 sec) 
Heartbeat CPU 0 instructions: 1290000004 cycles: 2423290210 heartbeat IPC: 0.352434 cumulative IPC: 0.352492 (Simulation time: 5 hr 6 min 52 sec) 
Heartbeat CPU 0 instructions: 1300000000 cycles: 2451668525 heartbeat IPC: 0.352382 cumulative IPC: 0.352491 (Simulation time: 5 hr 9 min 57 sec) 
Heartbeat CPU 0 instructions: 1310000000 cycles: 2480043769 heartbeat IPC: 0.35242 cumulative IPC: 0.35249 (Simulation time: 5 hr 13 min 3 sec) 
Heartbeat CPU 0 instructions: 1320000001 cycles: 2508412939 heartbeat IPC: 0.352495 cumulative IPC: 0.35249 (Simulation time: 5 hr 16 min 8 sec) 
Heartbeat CPU 0 instructions: 1330000001 cycles: 2536779872 heartbeat IPC: 0.352523 cumulative IPC: 0.352491 (Simulation time: 5 hr 19 min 14 sec) 
Heartbeat CPU 0 instructions: 1340000001 cycles: 2565155033 heartbeat IPC: 0.352421 cumulative IPC: 0.35249 (Simulation time: 5 hr 22 min 19 sec) 
Heartbeat CPU 0 instructions: 1350000003 cycles: 2593525584 heartbeat IPC: 0.352478 cumulative IPC: 0.35249 (Simulation time: 5 hr 25 min 24 sec) 
Heartbeat CPU 0 instructions: 1360000001 cycles: 2621894646 heartbeat IPC: 0.352497 cumulative IPC: 0.35249 (Simulation time: 5 hr 28 min 29 sec) 
Heartbeat CPU 0 instructions: 1370000001 cycles: 2650260337 heartbeat IPC: 0.352539 cumulative IPC: 0.35249 (Simulation time: 5 hr 31 min 34 sec) 
Heartbeat CPU 0 instructions: 1380000002 cycles: 2678627073 heartbeat IPC: 0.352526 cumulative IPC: 0.352491 (Simulation time: 5 hr 34 min 40 sec) 
Heartbeat CPU 0 instructions: 1390000003 cycles: 2706996613 heartbeat IPC: 0.352491 cumulative IPC: 0.352491 (Simulation time: 5 hr 37 min 46 sec) 
Heartbeat CPU 0 instructions: 1400000001 cycles: 2735365482 heartbeat IPC: 0.352499 cumulative IPC: 0.352491 (Simulation time: 5 hr 40 min 52 sec) 
Heartbeat CPU 0 instructions: 1410000004 cycles: 2763732098 heartbeat IPC: 0.352527 cumulative IPC: 0.352491 (Simulation time: 5 hr 43 min 57 sec) 
Heartbeat CPU 0 instructions: 1420000001 cycles: 2792102393 heartbeat IPC: 0.352481 cumulative IPC: 0.352491 (Simulation time: 5 hr 47 min 3 sec) 
Heartbeat CPU 0 instructions: 1430000000 cycles: 2820473334 heartbeat IPC: 0.352473 cumulative IPC: 0.352491 (Simulation time: 5 hr 50 min 8 sec) 
Heartbeat CPU 0 instructions: 1440000001 cycles: 2848842110 heartbeat IPC: 0.3525 cumulative IPC: 0.352491 (Simulation time: 5 hr 53 min 12 sec) 
Heartbeat CPU 0 instructions: 1450000002 cycles: 2877209587 heartbeat IPC: 0.352516 cumulative IPC: 0.352491 (Simulation time: 5 hr 56 min 16 sec) 
Heartbeat CPU 0 instructions: 1460000001 cycles: 2905575749 heartbeat IPC: 0.352533 cumulative IPC: 0.352492 (Simulation time: 5 hr 59 min 20 sec) 
Heartbeat CPU 0 instructions: 1470000003 cycles: 2933955125 heartbeat IPC: 0.352369 cumulative IPC: 0.35249 (Simulation time: 6 hr 2 min 24 sec) 
Heartbeat CPU 0 instructions: 1480000001 cycles: 2962326868 heartbeat IPC: 0.352463 cumulative IPC: 0.35249 (Simulation time: 6 hr 5 min 28 sec) 
Heartbeat CPU 0 instructions: 1490000002 cycles: 2990694773 heartbeat IPC: 0.352511 cumulative IPC: 0.35249 (Simulation time: 6 hr 8 min 33 sec) 
Heartbeat CPU 0 instructions: 1500000000 cycles: 3019061219 heartbeat IPC: 0.352529 cumulative IPC: 0.352491 (Simulation time: 6 hr 11 min 37 sec) 
Heartbeat CPU 0 instructions: 1510000001 cycles: 3047432910 heartbeat IPC: 0.352464 cumulative IPC: 0.35249 (Simulation time: 6 hr 14 min 41 sec) 
Heartbeat CPU 0 instructions: 1520000001 cycles: 3075802725 heartbeat IPC: 0.352487 cumulative IPC: 0.35249 (Simulation time: 6 hr 17 min 45 sec) 
Heartbeat CPU 0 instructions: 1530000001 cycles: 3104172787 heartbeat IPC: 0.352484 cumulative IPC: 0.35249 (Simulation time: 6 hr 20 min 49 sec) 
Heartbeat CPU 0 instructions: 1540000002 cycles: 3132551509 heartbeat IPC: 0.352377 cumulative IPC: 0.352489 (Simulation time: 6 hr 23 min 53 sec) 
Heartbeat CPU 0 instructions: 1550000002 cycles: 3160920336 heartbeat IPC: 0.3525 cumulative IPC: 0.352489 (Simulation time: 6 hr 26 min 58 sec) 
Heartbeat CPU 0 instructions: 1560000001 cycles: 3189288518 heartbeat IPC: 0.352508 cumulative IPC: 0.35249 (Simulation time: 6 hr 30 min 2 sec) 
Heartbeat CPU 0 instructions: 1570000002 cycles: 3217658144 heartbeat IPC: 0.35249 cumulative IPC: 0.35249 (Simulation time: 6 hr 33 min 8 sec) 
Heartbeat CPU 0 instructions: 1580000000 cycles: 3246025645 heartbeat IPC: 0.352516 cumulative IPC: 0.35249 (Simulation time: 6 hr 36 min 13 sec) 
Heartbeat CPU 0 instructions: 1590000001 cycles: 3274394022 heartbeat IPC: 0.352505 cumulative IPC: 0.35249 (Simulation time: 6 hr 39 min 19 sec) 
Heartbeat CPU 0 instructions: 1600000000 cycles: 3302762657 heartbeat IPC: 0.352502 cumulative IPC: 0.35249 (Simulation time: 6 hr 42 min 26 sec) 
Heartbeat CPU 0 instructions: 1610000000 cycles: 3331138429 heartbeat IPC: 0.352413 cumulative IPC: 0.352489 (Simulation time: 6 hr 45 min 31 sec) 
Heartbeat CPU 0 instructions: 1620000000 cycles: 3359507625 heartbeat IPC: 0.352495 cumulative IPC: 0.352489 (Simulation time: 6 hr 48 min 36 sec) 
Heartbeat CPU 0 instructions: 1630000001 cycles: 3387878374 heartbeat IPC: 0.352476 cumulative IPC: 0.352489 (Simulation time: 6 hr 51 min 41 sec) 
Heartbeat CPU 0 instructions: 1640000001 cycles: 3416244566 heartbeat IPC: 0.352532 cumulative IPC: 0.35249 (Simulation time: 6 hr 54 min 47 sec) 
Heartbeat CPU 0 instructions: 1650000000 cycles: 3444619118 heartbeat IPC: 0.352428 cumulative IPC: 0.352489 (Simulation time: 6 hr 57 min 52 sec) 
Heartbeat CPU 0 instructions: 1660000003 cycles: 3472987770 heartbeat IPC: 0.352502 cumulative IPC: 0.352489 (Simulation time: 7 hr 0 min 57 sec) 
Heartbeat CPU 0 instructions: 1670000001 cycles: 3501347098 heartbeat IPC: 0.352618 cumulative IPC: 0.35249 (Simulation time: 7 hr 4 min 3 sec) 
Heartbeat CPU 0 instructions: 1680000004 cycles: 3529714453 heartbeat IPC: 0.352518 cumulative IPC: 0.352491 (Simulation time: 7 hr 7 min 8 sec) 
Heartbeat CPU 0 instructions: 1690000001 cycles: 3558080388 heartbeat IPC: 0.352535 cumulative IPC: 0.352491 (Simulation time: 7 hr 10 min 14 sec) 
Heartbeat CPU 0 instructions: 1700000000 cycles: 3586449403 heartbeat IPC: 0.352497 cumulative IPC: 0.352491 (Simulation time: 7 hr 13 min 19 sec) 
Heartbeat CPU 0 instructions: 1710000001 cycles: 3614820047 heartbeat IPC: 0.352477 cumulative IPC: 0.352491 (Simulation time: 7 hr 16 min 24 sec) 
Heartbeat CPU 0 instructions: 1720000001 cycles: 3643188061 heartbeat IPC: 0.35251 cumulative IPC: 0.352491 (Simulation time: 7 hr 19 min 29 sec) 
Heartbeat CPU 0 instructions: 1730000002 cycles: 3671560303 heartbeat IPC: 0.352457 cumulative IPC: 0.352491 (Simulation time: 7 hr 22 min 34 sec) 
Heartbeat CPU 0 instructions: 1740000003 cycles: 3699928409 heartbeat IPC: 0.352509 cumulative IPC: 0.352491 (Simulation time: 7 hr 25 min 40 sec) 
Heartbeat CPU 0 instructions: 1750000003 cycles: 3728298260 heartbeat IPC: 0.352487 cumulative IPC: 0.352491 (Simulation time: 7 hr 28 min 46 sec) 
Heartbeat CPU 0 instructions: 1760000001 cycles: 3756665426 heartbeat IPC: 0.35252 cumulative IPC: 0.352491 (Simulation time: 7 hr 31 min 51 sec) 
Heartbeat CPU 0 instructions: 1770000000 cycles: 3785035160 heartbeat IPC: 0.352488 cumulative IPC: 0.352491 (Simulation time: 7 hr 34 min 56 sec) 
Heartbeat CPU 0 instructions: 1780000001 cycles: 3813403917 heartbeat IPC: 0.3525 cumulative IPC: 0.352491 (Simulation time: 7 hr 38 min 1 sec) 
Heartbeat CPU 0 instructions: 1790000001 cycles: 3841774466 heartbeat IPC: 0.352478 cumulative IPC: 0.352491 (Simulation time: 7 hr 41 min 6 sec) 
Heartbeat CPU 0 instructions: 1800000002 cycles: 3870140952 heartbeat IPC: 0.352529 cumulative IPC: 0.352491 (Simulation time: 7 hr 44 min 11 sec) 
Heartbeat CPU 0 instructions: 1810000001 cycles: 3898509929 heartbeat IPC: 0.352498 cumulative IPC: 0.352491 (Simulation time: 7 hr 47 min 16 sec) 
Heartbeat CPU 0 instructions: 1820000001 cycles: 3926877984 heartbeat IPC: 0.352509 cumulative IPC: 0.352492 (Simulation time: 7 hr 50 min 20 sec) 
Heartbeat CPU 0 instructions: 1830000001 cycles: 3955250770 heartbeat IPC: 0.35245 cumulative IPC: 0.352491 (Simulation time: 7 hr 53 min 25 sec) 
Heartbeat CPU 0 instructions: 1840000002 cycles: 3983622200 heartbeat IPC: 0.352467 cumulative IPC: 0.352491 (Simulation time: 7 hr 56 min 31 sec) 
Heartbeat CPU 0 instructions: 1850000001 cycles: 4011988937 heartbeat IPC: 0.352526 cumulative IPC: 0.352491 (Simulation time: 7 hr 59 min 35 sec) 
Heartbeat CPU 0 instructions: 1860000003 cycles: 4040356879 heartbeat IPC: 0.352511 cumulative IPC: 0.352491 (Simulation time: 8 hr 2 min 40 sec) 
Heartbeat CPU 0 instructions: 1870000001 cycles: 4068724902 heartbeat IPC: 0.35251 cumulative IPC: 0.352492 (Simulation time: 8 hr 5 min 44 sec) 
Heartbeat CPU 0 instructions: 1880000000 cycles: 4097095926 heartbeat IPC: 0.352472 cumulative IPC: 0.352491 (Simulation time: 8 hr 8 min 48 sec) 
Heartbeat CPU 0 instructions: 1890000000 cycles: 4125462078 heartbeat IPC: 0.352533 cumulative IPC: 0.352492 (Simulation time: 8 hr 11 min 52 sec) 
Heartbeat CPU 0 instructions: 1900000001 cycles: 4153829974 heartbeat IPC: 0.352511 cumulative IPC: 0.352492 (Simulation time: 8 hr 14 min 57 sec) 
Heartbeat CPU 0 instructions: 1910000001 cycles: 4182199388 heartbeat IPC: 0.352492 cumulative IPC: 0.352492 (Simulation time: 8 hr 18 min 2 sec) 
Heartbeat CPU 0 instructions: 1920000001 cycles: 4210571756 heartbeat IPC: 0.352456 cumulative IPC: 0.352492 (Simulation time: 8 hr 21 min 7 sec) 
Heartbeat CPU 0 instructions: 1930000002 cycles: 4238938574 heartbeat IPC: 0.352525 cumulative IPC: 0.352492 (Simulation time: 8 hr 24 min 11 sec) 
Heartbeat CPU 0 instructions: 1940000002 cycles: 4267319215 heartbeat IPC: 0.352353 cumulative IPC: 0.352491 (Simulation time: 8 hr 27 min 16 sec) 
Heartbeat CPU 0 instructions: 1950000004 cycles: 4295686342 heartbeat IPC: 0.352521 cumulative IPC: 0.352491 (Simulation time: 8 hr 30 min 20 sec) 
Heartbeat CPU 0 instructions: 1960000002 cycles: 4324055973 heartbeat IPC: 0.35249 cumulative IPC: 0.352491 (Simulation time: 8 hr 33 min 25 sec) 
Heartbeat CPU 0 instructions: 1970000000 cycles: 4352430939 heartbeat IPC: 0.352423 cumulative IPC: 0.352491 (Simulation time: 8 hr 36 min 30 sec) 
Heartbeat CPU 0 instructions: 1980000001 cycles: 4380798634 heartbeat IPC: 0.352514 cumulative IPC: 0.352491 (Simulation time: 8 hr 39 min 34 sec) 
Heartbeat CPU 0 instructions: 1990000001 cycles: 4409165268 heartbeat IPC: 0.352527 cumulative IPC: 0.352491 (Simulation time: 8 hr 42 min 40 sec) 
*** Reached end of trace: traces/603.bwaves_s-2609B.champsimtrace.xz
Heartbeat CPU 0 instructions: 2000000002 cycles: 4437536078 heartbeat IPC: 0.352475 cumulative IPC: 0.352491 (Simulation time: 8 hr 45 min 45 sec) 
Finished CPU 0 instructions: 1500000003 cycles: 4255429042 cumulative IPC: 0.352491 (Simulation time: 8 hr 45 min 45 sec) 

ChampSim completed all CPUs

Region of Interest Statistics

CPU 0 cumulative IPC: 0.352491 instructions: 1500000003 cycles: 4255429042
cpu0_DTLB TOTAL     ACCESS:  472235003  HIT:  471470270  MISS:     764733
cpu0_DTLB LOAD      ACCESS:  438743947  HIT:  438067166  MISS:     676781
cpu0_DTLB RFO       ACCESS:   33491056  HIT:   33403104  MISS:      87952
cpu0_DTLB PREFETCH  ACCESS:          0  HIT:          0  MISS:          0
cpu0_DTLB WRITEBACK ACCESS:          0  HIT:          0  MISS:          0
cpu0_DTLB TRANSLATION ACCESS:          0  HIT:          0  MISS:          0
cpu0_DTLB PREFETCH  REQUESTED:          0  ISSUED:          0  USEFUL:          0  USELESS:          0
cpu0_DTLB AVERAGE MISS LATENCY: 157.034 cycles
cpu0_ITLB TOTAL     ACCESS:  132173308  HIT:  132173308  MISS:          0
cpu0_ITLB LOAD      ACCESS:  132173308  HIT:  132173308  MISS:          0
cpu0_ITLB RFO       ACCESS:          0  HIT:          0  MISS:          0
cpu0_ITLB PREFETCH  ACCESS:          0  HIT:          0  MISS:          0
cpu0_ITLB WRITEBACK ACCESS:          0  HIT:          0  MISS:          0
cpu0_ITLB TRANSLATION ACCESS:          0  HIT:          0  MISS:          0
cpu0_ITLB PREFETCH  REQUESTED:          0  ISSUED:          0  USEFUL:          0  USELESS:          0
cpu0_ITLB AVERAGE MISS LATENCY: -nan cycles
cpu0_STLB TOTAL     ACCESS:     764733  HIT:     319360  MISS:     445373
cpu0_STLB LOAD      ACCESS:     676781  HIT:     242828  MISS:     433953
cpu0_STLB RFO       ACCESS:      87952  HIT:      76532  MISS:      11420
cpu0_STLB PREFETCH  ACCESS:          0  HIT:          0  MISS:          0
cpu0_STLB WRITEBACK ACCESS:          0  HIT:          0  MISS:          0
cpu0_STLB TRANSLATION ACCESS:          0  HIT:          0  MISS:          0
cpu0_STLB PREFETCH  REQUESTED:          0  ISSUED:          0  USEFUL:          0  USELESS:          0
cpu0_STLB AVERAGE MISS LATENCY: 253.397 cycles
cpu0_L1D TOTAL     ACCESS:  474231774  HIT:  444207585  MISS:   30024189
cpu0_L1D LOAD      ACCESS:  390444253  HIT:  361187313  MISS:   29256940
cpu0_L1D RFO       ACCESS:   83342148  HIT:   82611283  MISS:     730865
cpu0_L1D PREFETCH  ACCESS:          0  HIT:          0  MISS:          0
cpu0_L1D WRITEBACK ACCESS:          0  HIT:          0  MISS:          0
cpu0_L1D TRANSLATION ACCESS:     445373  HIT:     408989  MISS:      36384
cpu0_L1D PREFETCH  REQUESTED:          0  ISSUED:          0  USEFUL:          0  USELESS:          0
cpu0_L1D AVERAGE MISS LATENCY: 1152.71 cycles
cpu0_L2C TOTAL     ACCESS:   30766131  HIT:    2253744  MISS:   28512387
cpu0_L2C LOAD      ACCESS:   29256940  HIT:    1476350  MISS:   27780590
cpu0_L2C RFO       ACCESS:     730865  HIT:          0  MISS:     730865
cpu0_L2C PREFETCH  ACCESS:          0  HIT:          0  MISS:          0
cpu0_L2C WRITEBACK ACCESS:     741942  HIT:     741942  MISS:          0
cpu0_L2C TRANSLATION ACCESS:      36384  HIT:      35452  MISS:        932
cpu0_L2C PREFETCH  REQUESTED:          0  ISSUED:          0  USEFUL:          0  USELESS:          0
cpu0_L2C AVERAGE MISS LATENCY: 1201.78 cycles
LLC TOTAL     ACCESS:   29243614  HIT:     738748  MISS:   28504866
LLC LOAD      ACCESS:   27780590  HIT:       7440  MISS:   27773150
LLC RFO       ACCESS:     730865  HIT:          0  MISS:     730865
LLC PREFETCH  ACCESS:          0  HIT:          0  MISS:          0
LLC WRITEBACK ACCESS:     731227  HIT:     731117  MISS:        110
LLC TRANSLATION ACCESS:        932  HIT:        191  MISS:        741
LLC PREFETCH  REQUESTED:          0  ISSUED:          0  USEFUL:          0  USELESS:          0
LLC AVERAGE MISS LATENCY: 1181.09 cycles
~~~~~~~~~~Reuse Distance Profiler output~~~~~~~~~~
0	52875376	5575600
1	15580640	7665424
2	15899584	7272848
3	12934544	10475056
4	14520960	10663568
5	14593712	11684368
6	19634272	15611680
7	23948880	19681424
8	15829120	13727440
9	23157072	20938704
10	15545760	14767392
11	12916928	12264864
12	12602928	12065248
13	13986272	11100016
14	13004576	11646016
15	21698928	19837376
16	43052464	42737072
17	11457632	10501936
18	8448480	7769872
19	7169184	6827024
20	5744496	5525824
21	3044784	2899984
22	4739488	4461040
23	4133888	3782336
24	4463216	4240544
25	5700256	5689888
26	3453808	3318176
27	4379760	4379168
28	3772000	3618880
29	2530592	2383616
30	2925984	2921968
31	4377664	4372704
32	2347440	2338176
33	2392944	2382176
34	1509136	1362896
35	2491184	2068144
36	1459104	1040960
37	2931520	2678784
38	2325088	1381376
39	3074784	2315904
40	3235040	3122400
41	2222320	2069648
42	1970608	1546688
43	1219200	1069440
44	1861776	1671392
45	1416672	1250448
46	1979824	1693312
47	1859984	1517952
48	2981072	2826832
49	2159008	2149904
50	1060640	924672
51	962352	945424
52	1169296	1028304
53	1223760	1085440
54	949520	942080
55	2369968	2229504
56	3072624	3055600
57	2392848	2384944
58	3133168	3130832
59	3494752	3219280
60	2446352	2302144
61	2235024	2226224
62	2893968	2599408
63	3107072	3098560
64	6688592	6482608
66	6229344	5776544
68	7703360	6985152
70	10315552	10140816
72	11234640	10711824
74	8040480	7924912
76	7526672	7330896
78	9363552	9022304
80	18586304	18150688
82	13409312	12958608
84	6866320	6405584
86	5554384	5313552
88	4628960	3811312
90	3897280	3528304
92	1766144	1622240
94	1605216	1341840
96	6071840	6048304
98	6597536	6276320
100	972688	839024
102	647584	510688
104	167488	165408
106	705520	704112
108	205232	204960
110	340880	335840
112	4848	4832
114	6176	6176
116	1200	1200
118	176	176
120	304	304
122	256	256
124	80	80
126	2560	2560
128	6992	6880
132	3872	3824
136	5472	5472
140	240	240
144	0	0
148	16	16
152	176	176
156	288	288
160	288	288
164	4784	4784
168	0	0
172	0	0
176	0	0
180	0	0
184	0	0
188	0	0
192	0	0
196	0	0
200	0	0
204	0	0
208	0	0
212	0	0
216	0	0
220	0	0
224	0	0
228	0	0
232	0	0
236	0	0
240	0	0
244	0	0
248	0	0
252	0	0
256	0	0
264	0	0
272	0	0
280	0	0
288	0	0
296	0	0
304	0	0
312	0	0
320	0	0
328	0	0
336	2752	2752
344	149984	149984
352	27888	27888
360	374848	374848
368	375520	375520
376	620768	620768
384	363344	363344
392	151312	151312
400	267584	267584
408	4336	4336
416	0	0
424	32	32
432	0	0
440	0	0
448	16	16
456	80	80
464	6288	6288
472	380432	380432
480	380176	380176
488	7104	7104
496	1888	1888
504	0	0
512	0	0
528	0	0
544	0	0
560	0	0
576	0	0
592	0	0
608	0	0
624	0	0
640	0	0
656	0	0
672	0	0
688	0	0
704	0	0
720	0	0
736	0	0
752	0	0
768	0	0
784	0	0
800	0	0
816	0	0
832	0	0
848	0	0
864	0	0
880	0	0
896	0	0
912	0	0
928	0	0
944	0	0
960	0	0
976	0	0
992	0	0
1008	0	0
1024	0	0
1056	0	0
1088	0	0
1120	0	0
1152	0	0
1184	0	0
1216	0	0
1248	0	0
1280	0	0
1312	0	0
1344	0	0
1376	0	0
1408	0	0
1440	0	0
1472	0	0
1504	0	0
1536	0	0
1568	0	0
1600	0	0
1632	0	0
1664	0	0
1696	0	0
1728	0	0
1760	0	0
1792	0	0
1824	0	0
1856	0	0
1888	0	0
1920	0	0
1952	0	0
1984	0	0
2016	0	0
2048	0	0
2112	0	0
2176	0	0
2240	0	0
2304	0	0
2368	0	0
2432	0	0
2496	0	0
2560	0	0
2624	0	0
2688	0	0
2752	0	0
2816	0	0
2880	0	0
2944	0	0
3008	0	0
3072	0	0
3136	0	0
3200	0	0
3264	0	0
3328	0	0
3392	0	0
3456	0	0
3520	0	0
3584	0	0
3648	0	0
3712	0	0
3776	0	0
3840	0	0
3904	0	0
3968	0	0
4032	0	0
4096	0	0
4224	0	0
4352	0	0
4480	0	0
4608	0	0
4736	0	0
4864	0	0
4992	0	0
5120	0	0
5248	0	0
5376	0	0
5504	0	0
5632	0	0
5760	0	0
5888	0	0
6016	0	0
6144	0	0
6272	0	0
6400	0	0
6528	0	0
6656	0	0
6784	0	0
6912	0	0
7040	0	0
7168	0	0
7296	0	0
7424	0	0
7552	0	0
7680	0	0
7808	0	0
7936	0	0
8064	0	0
8192	0	0
8448	0	0
8704	0	0
8960	0	0
9216	0	0
9472	0	0
9728	0	0
9984	0	0
10240	0	0
10496	0	0
10752	0	0
11008	0	0
11264	0	0
11520	0	0
11776	0	0
12032	0	0
12288	0	0
12544	0	0
12800	0	0
13056	0	0
13312	0	0
13568	0	0
13824	0	0
14080	0	0
14336	0	0
14592	0	0
14848	0	0
15104	0	0
15360	0	0
15616	0	0
15872	0	0
16128	0	0
16384	0	0
16896	0	0
17408	0	0
17920	0	0
18432	0	0
18944	0	0
19456	0	0
19968	0	0
20480	0	0
20992	0	0
21504	0	0
22016	0	0
22528	0	0
23040	0	0
23552	0	0
24064	0	0
24576	0	0
25088	0	0
25600	0	0
26112	0	0
26624	0	0
27136	0	0
27648	0	0
28160	0	0
28672	0	0
29184	0	0
29696	0	0
30208	0	0
30720	0	0
31232	0	0
31744	0	0
32256	0	0
32768	0	0
33792	0	0
34816	0	0
35840	0	0
36864	0	0
37888	0	0
38912	0	0
39936	0	0
40960	0	0
41984	1442240	1442240
43008	38896	38896
44032	16	16
45056	16	16
46080	32	32
47104	32	32
48128	32	32
49152	0	0
50176	16	16
51200	0	0
52224	479760	479760
53248	5968	5968
54272	7504	7504
55296	0	0
56320	0	0
57344	0	0
58368	0	0
59392	0	0
60416	0	0
61440	0	0
62464	0	0
63488	0	0
64512	0	0
65536	0	0
67584	0	0
69632	0	0
71680	0	0
73728	0	0
75776	0	0
77824	0	0
79872	0	0
81920	0	0
83968	0	0
86016	0	0
88064	0	0
90112	0	0
92160	0	0
94208	0	0
96256	0	0
98304	0	0
100352	0	0
102400	0	0
104448	0	0
106496	0	0
108544	0	0
110592	0	0
112640	0	0
114688	0	0
116736	0	0
118784	0	0
120832	0	0
122880	0	0
124928	0	0
126976	0	0
129024	0	0
131072	0	0
135168	0	0
139264	0	0
143360	0	0
147456	0	0
151552	0	0
155648	0	0
159744	0	0
163840	0	0
167936	0	0
172032	0	0
176128	0	0
180224	0	0
184320	0	0
188416	0	0
192512	0	0
196608	0	0
200704	0	0
204800	0	0
208896	0	0
212992	0	0
217088	0	0
221184	0	0
225280	0	0
229376	0	0
233472	0	0
237568	0	0
241664	0	0
245760	0	0
249856	0	0
253952	0	0
258048	0	0
262144	0	0
270336	0	0
278528	0	0
286720	0	0
294912	0	0
303104	0	0
311296	0	0
319488	0	0
327680	0	0
335872	0	0
344064	0	0
352256	0	0
360448	0	0
368640	0	0
376832	0	0
385024	0	0
393216	0	0
401408	0	0
409600	0	0
417792	0	0
425984	0	0
434176	0	0
442368	0	0
450560	0	0
458752	0	0
466944	0	0
475136	0	0
483328	0	0
491520	0	0
499712	0	0
507904	0	0
516096	0	0
524288	0	0
540672	0	0
557056	0	0
573440	0	0
589824	0	0
606208	0	0
622592	0	0
638976	0	0
655360	0	0
671744	0	0
688128	0	0
704512	0	0
720896	0	0
737280	0	0
753664	0	0
770048	0	0
786432	0	0
802816	0	0
819200	0	0
835584	0	0
851968	0	0
868352	0	0
884736	0	0
901120	0	0
917504	0	0
933888	0	0
950272	0	0
966656	0	0
983040	0	0
999424	0	0
1015808	0	0
1032192	0	0
1048576	0	0
1081344	0	0
1114112	0	0
1146880	0	0
1179648	0	0
1212416	0	0
1245184	0	0
1277952	0	0
1310720	0	0
1343488	0	0
1376256	0	0
1409024	0	0
1441792	0	0
1474560	0	0
1507328	0	0
1540096	0	0
1572864	0	0
1605632	0	0
1638400	0	0
1671168	0	0
1703936	0	0
1736704	0	0
1769472	0	0
1802240	0	0
1835008	0	0
1867776	0	0
1900544	0	0
1933312	0	0
1966080	0	0
1998848	0	0
2031616	0	0
2064384	0	0
2097152	0	0
2162688	0	0
2228224	0	0
2293760	0	0
2359296	0	0
2424832	0	0
2490368	0	0
2555904	0	0
2621440	0	0
2686976	0	0
2752512	0	0
2818048	0	0
2883584	0	0
2949120	0	0
3014656	0	0
3080192	0	0
3145728	0	0
3211264	0	0
3276800	0	0
3342336	0	0
3407872	0	0
3473408	0	0
3538944	0	0
3604480	0	0
3670016	0	0
3735552	0	0
3801088	0	0
3866624	0	0
3932160	0	0
3997696	0	0
4063232	0	0
4128768	0	0
4194304	0	0
4325376	0	0
4456448	0	0
4587520	0	0
4718592	0	0
4849664	0	0
4980736	0	0
5111808	0	0
5242880	0	0
5373952	0	0
5505024	0	0
5636096	1448208	1448208
5767168	1696	1696
5898240	1568	1568
6029312	1472	1472
6160384	1872	1872
6291456	1648	1648
6422528	1568	1568
6553600	1552	1552
6684672	1760	1760
6815744	1632	1632
6946816	5184	5184
7077888	465280	465280
7208960	0	0
7340032	0	0
7471104	0	0
7602176	0	0
7733248	0	0
7864320	0	0
7995392	0	0
8126464	0	0
8257536	0	0
8388608	0	0
8650752	0	0
8912896	0	0
9175040	0	0
9437184	0	0
9699328	0	0
9961472	0	0
10223616	0	0
10485760	0	0
10747904	0	0
11010048	0	0
11272192	0	0
11534336	0	0
11796480	0	0
12058624	0	0
12320768	0	0
12582912	0	0
12845056	0	0
13107200	0	0
13369344	0	0
13631488	0	0
13893632	0	0
14155776	0	0
14417920	0	0
14680064	0	0
14942208	0	0
15204352	0	0
15466496	0	0
15728640	0	0
15990784	0	0
16252928	0	0
16515072	0	0
16777216	0	0
17301504	0	0
17825792	0	0
18350080	0	0
18874368	0	0
19398656	0	0
19922944	0	0
20447232	0	0
20971520	0	0
21495808	0	0
22020096	0	0
22544384	0	0
23068672	0	0
23592960	0	0
24117248	0	0
24641536	0	0
25165824	0	0
25690112	0	0
26214400	0	0
26738688	0	0
27262976	0	0
27787264	0	0
28311552	0	0
28835840	0	0
29360128	0	0
29884416	0	0
30408704	0	0
30932992	0	0
31457280	0	0
31981568	0	0
32505856	0	0
33030144	0	0
33554432	0	0
34603008	0	0
35651584	0	0
36700160	0	0
37748736	0	0
38797312	0	0
39845888	0	0
40894464	0	0
41943040	0	0
42991616	0	0
44040192	0	0
45088768	0	0
46137344	0	0
47185920	0	0
48234496	0	0
49283072	0	0
50331648	0	0
51380224	0	0
52428800	0	0
53477376	0	0
54525952	0	0
55574528	0	0
56623104	0	0
57671680	0	0
58720256	0	0
59768832	0	0
60817408	0	0
61865984	0	0
62914560	0	0
63963136	0	0
65011712	0	0
66060288	0	0
67108864	0	0
69206016	0	0
71303168	0	0
73400320	0	0
75497472	0	0
77594624	0	0
79691776	0	0
81788928	0	0
83886080	0	0
85983232	0	0
88080384	0	0
90177536	0	0
92274688	0	0
94371840	0	0
96468992	0	0
98566144	0	0
100663296	0	0
102760448	0	0
104857600	0	0
106954752	0	0
109051904	0	0
111149056	0	0
113246208	0	0
115343360	0	0
117440512	0	0
119537664	0	0
121634816	0	0
123731968	0	0
125829120	0	0
127926272	0	0
130023424	0	0
132120576	0	0
134217728	0	0
138412032	0	0
142606336	0	0
146800640	0	0
150994944	0	0
155189248	0	0
159383552	0	0
163577856	0	0
167772160	0	0
171966464	0	0
176160768	0	0
180355072	0	0
184549376	0	0
188743680	0	0
192937984	0	0
197132288	0	0
201326592	0	0
205520896	0	0
209715200	0	0
213909504	0	0
218103808	0	0
222298112	0	0
226492416	0	0
230686720	0	0
234881024	0	0
239075328	0	0
243269632	0	0
247463936	0	0
251658240	0	0
255852544	0	0
260046848	0	0
264241152	0	0
268435456	0	0
276824064	0	0
285212672	0	0
293601280	0	0
301989888	0	0
310378496	0	0
318767104	0	0
327155712	0	0
335544320	0	0
343932928	0	0
352321536	0	0
360710144	0	0
369098752	0	0
377487360	0	0
385875968	0	0
394264576	0	0
402653184	0	0
411041792	0	0
419430400	0	0
427819008	0	0
436207616	0	0
444596224	0	0
452984832	0	0
461373440	0	0
469762048	0	0
478150656	0	0
486539264	0	0
494927872	0	0
503316480	0	0
511705088	0	0
520093696	0	0
528482304	0	0
536870912	0	0
553648128	0	0
570425344	0	0
587202560	0	0
603979776	0	0
620756992	0	0
637534208	0	0
654311424	0	0
671088640	0	0
687865856	0	0
704643072	0	0
721420288	0	0
738197504	0	0
754974720	0	0
771751936	0	0
788529152	0	0
805306368	0	0
822083584	0	0
838860800	0	0
855638016	0	0
872415232	0	0
889192448	0	0
905969664	0	0
922746880	0	0
939524096	0	0
956301312	0	0
973078528	0	0
989855744	0	0
1006632960	0	0
1023410176	0	0
1040187392	0	0
1056964608	0	0
1073741824	0	0
1107296256	0	0
1140850688	0	0
1174405120	0	0
1207959552	0	0
1241513984	0	0
1275068416	0	0
1308622848	0	0
1342177280	0	0
1375731712	0	0
1409286144	0	0
1442840576	0	0
1476395008	0	0
1509949440	0	0
1543503872	0	0
1577058304	0	0
1610612736	0	0
1644167168	0	0
1677721600	0	0
1711276032	0	0
1744830464	0	0
1778384896	0	0
1811939328	0	0
1845493760	0	0
1879048192	0	0
1912602624	0	0
1946157056	0	0
1979711488	0	0
2013265920	0	0
2046820352	0	0
2080374784	0	0
2113929216	0	0
2147483648	0	0
2214592512	0	0
2281701376	0	0
2348810240	0	0
2415919104	0	0
2483027968	0	0
2550136832	0	0
2617245696	0	0
2684354560	0	0
2751463424	0	0
2818572288	0	0
2885681152	0	0
2952790016	0	0
3019898880	0	0
3087007744	0	0
3154116608	0	0
3221225472	0	0
3288334336	0	0
3355443200	0	0
3422552064	0	0
3489660928	0	0
3556769792	0	0
3623878656	0	0
3690987520	0	0
3758096384	0	0
3825205248	0	0
3892314112	0	0
3959422976	0	0
4026531840	0	0
4093640704	0	0
4160749568	0	0
4227858432	0	0
~~~~~~~~~~Reuse Distance Profiler output end~~~~~~~~~~

DRAM Statistics
 CHANNEL 0
 RQ ROW_BUFFER_HIT:       3675  ROW_BUFFER_MISS:   28501081
 DBUS AVG_CONGESTED_CYCLE:    3.99982
 WQ ROW_BUFFER_HIT:     177862  ROW_BUFFER_MISS:     553437  FULL:          0


CPU 0 Branch Prediction Accuracy: 62.4636% MPKI: 9.36962 Average ROB Occupancy at Mispredict: 291.021
Branch type MPKI
BRANCH_DIRECT_JUMP: 0
BRANCH_INDIRECT: 0
BRANCH_CONDITIONAL: 9.36962
BRANCH_DIRECT_CALL: 0
BRANCH_INDIRECT_CALL: 0
BRANCH_RETURN: 0

