
*** ChampSim Multicore Out-of-Order Simulator ***

Warmup Instructions: 500000000
Simulation Instructions: 1500000000
Number of CPUs: 1
Off-chip DRAM Size: 4 GiB Channels: 1 Width: 64-bit Data Rate: 3200 MT/s

VirtualMemory physical capacity: 8588881920 num_ppages: 2096895
VirtualMemory page size: 4096 log2_page_size: 12

CPU 0 runs traces/603.bwaves_s-3699B.champsimtrace.xz
CPU 0 Bimodal branch predictor
Basic BTB sets: 1024 ways: 8 indirect buffer size: 4096 RAS size: 64
Initializing LRU.
Initializing LRU.
Initializing LRU.
Initializing LRU.
Initializing rdLRU.
Initializing LRU.
Initializing LRU.
Heartbeat CPU 0 instructions: 10000000 cycles: 2685181 heartbeat IPC: 3.72414 cumulative IPC: 3.72414 (Simulation time: 0 hr 0 min 34 sec) 
Heartbeat CPU 0 instructions: 20000002 cycles: 5318734 heartbeat IPC: 3.79715 cumulative IPC: 3.76029 (Simulation time: 0 hr 1 min 6 sec) 
Heartbeat CPU 0 instructions: 30000003 cycles: 7940291 heartbeat IPC: 3.81453 cumulative IPC: 3.7782 (Simulation time: 0 hr 1 min 39 sec) 
Heartbeat CPU 0 instructions: 40000003 cycles: 10625414 heartbeat IPC: 3.72422 cumulative IPC: 3.76456 (Simulation time: 0 hr 2 min 12 sec) 
Heartbeat CPU 0 instructions: 50000002 cycles: 13309266 heartbeat IPC: 3.72599 cumulative IPC: 3.75678 (Simulation time: 0 hr 2 min 45 sec) 
Heartbeat CPU 0 instructions: 60000004 cycles: 15989485 heartbeat IPC: 3.73104 cumulative IPC: 3.75247 (Simulation time: 0 hr 3 min 18 sec) 
Heartbeat CPU 0 instructions: 70000000 cycles: 18666396 heartbeat IPC: 3.73565 cumulative IPC: 3.75005 (Simulation time: 0 hr 3 min 50 sec) 
Heartbeat CPU 0 instructions: 80000004 cycles: 21342379 heartbeat IPC: 3.73695 cumulative IPC: 3.74841 (Simulation time: 0 hr 4 min 23 sec) 
Heartbeat CPU 0 instructions: 90000001 cycles: 24020491 heartbeat IPC: 3.73397 cumulative IPC: 3.7468 (Simulation time: 0 hr 4 min 56 sec) 
Heartbeat CPU 0 instructions: 100000001 cycles: 26682896 heartbeat IPC: 3.756 cumulative IPC: 3.74772 (Simulation time: 0 hr 5 min 29 sec) 
Heartbeat CPU 0 instructions: 110000002 cycles: 29347085 heartbeat IPC: 3.75349 cumulative IPC: 3.74824 (Simulation time: 0 hr 6 min 2 sec) 
Heartbeat CPU 0 instructions: 120000002 cycles: 32009026 heartbeat IPC: 3.75666 cumulative IPC: 3.74894 (Simulation time: 0 hr 6 min 35 sec) 
Heartbeat CPU 0 instructions: 130000000 cycles: 34661410 heartbeat IPC: 3.77019 cumulative IPC: 3.75057 (Simulation time: 0 hr 7 min 7 sec) 
Heartbeat CPU 0 instructions: 140000000 cycles: 37292423 heartbeat IPC: 3.80082 cumulative IPC: 3.75411 (Simulation time: 0 hr 7 min 38 sec) 
Heartbeat CPU 0 instructions: 150000004 cycles: 39945247 heartbeat IPC: 3.76957 cumulative IPC: 3.75514 (Simulation time: 0 hr 8 min 11 sec) 
Heartbeat CPU 0 instructions: 160000001 cycles: 42603599 heartbeat IPC: 3.76173 cumulative IPC: 3.75555 (Simulation time: 0 hr 8 min 44 sec) 
Heartbeat CPU 0 instructions: 170000002 cycles: 45238934 heartbeat IPC: 3.79458 cumulative IPC: 3.75783 (Simulation time: 0 hr 9 min 16 sec) 
Heartbeat CPU 0 instructions: 180000003 cycles: 47874310 heartbeat IPC: 3.79453 cumulative IPC: 3.75985 (Simulation time: 0 hr 9 min 48 sec) 
Heartbeat CPU 0 instructions: 190000003 cycles: 50516482 heartbeat IPC: 3.78477 cumulative IPC: 3.76115 (Simulation time: 0 hr 10 min 21 sec) 
Heartbeat CPU 0 instructions: 200000000 cycles: 53183768 heartbeat IPC: 3.74913 cumulative IPC: 3.76055 (Simulation time: 0 hr 10 min 53 sec) 
Heartbeat CPU 0 instructions: 210000003 cycles: 55836038 heartbeat IPC: 3.77036 cumulative IPC: 3.76101 (Simulation time: 0 hr 11 min 25 sec) 
Heartbeat CPU 0 instructions: 220000001 cycles: 58480235 heartbeat IPC: 3.78187 cumulative IPC: 3.76195 (Simulation time: 0 hr 11 min 57 sec) 
Heartbeat CPU 0 instructions: 230000002 cycles: 61132493 heartbeat IPC: 3.77037 cumulative IPC: 3.76232 (Simulation time: 0 hr 12 min 33 sec) 
Heartbeat CPU 0 instructions: 240000001 cycles: 63783022 heartbeat IPC: 3.77283 cumulative IPC: 3.76276 (Simulation time: 0 hr 13 min 24 sec) 
Heartbeat CPU 0 instructions: 250000000 cycles: 66444047 heartbeat IPC: 3.75795 cumulative IPC: 3.76256 (Simulation time: 0 hr 14 min 20 sec) 
Heartbeat CPU 0 instructions: 260000002 cycles: 69100502 heartbeat IPC: 3.76442 cumulative IPC: 3.76264 (Simulation time: 0 hr 14 min 58 sec) 
Heartbeat CPU 0 instructions: 270000003 cycles: 71749720 heartbeat IPC: 3.7747 cumulative IPC: 3.76308 (Simulation time: 0 hr 15 min 34 sec) 
Heartbeat CPU 0 instructions: 280000002 cycles: 74415246 heartbeat IPC: 3.7516 cumulative IPC: 3.76267 (Simulation time: 0 hr 16 min 20 sec) 
Heartbeat CPU 0 instructions: 290000000 cycles: 77069350 heartbeat IPC: 3.76775 cumulative IPC: 3.76284 (Simulation time: 0 hr 17 min 13 sec) 
Heartbeat CPU 0 instructions: 300000002 cycles: 79721205 heartbeat IPC: 3.77095 cumulative IPC: 3.76311 (Simulation time: 0 hr 17 min 53 sec) 
Heartbeat CPU 0 instructions: 310000000 cycles: 82386731 heartbeat IPC: 3.7516 cumulative IPC: 3.76274 (Simulation time: 0 hr 18 min 39 sec) 
Heartbeat CPU 0 instructions: 320000001 cycles: 85035837 heartbeat IPC: 3.77486 cumulative IPC: 3.76312 (Simulation time: 0 hr 19 min 17 sec) 
Heartbeat CPU 0 instructions: 330000002 cycles: 87684820 heartbeat IPC: 3.77503 cumulative IPC: 3.76348 (Simulation time: 0 hr 20 min 0 sec) 
Heartbeat CPU 0 instructions: 340000002 cycles: 90329979 heartbeat IPC: 3.78049 cumulative IPC: 3.76398 (Simulation time: 0 hr 20 min 38 sec) 
Heartbeat CPU 0 instructions: 350000000 cycles: 92982622 heartbeat IPC: 3.76982 cumulative IPC: 3.76414 (Simulation time: 0 hr 21 min 27 sec) 
Heartbeat CPU 0 instructions: 360000000 cycles: 95624086 heartbeat IPC: 3.78578 cumulative IPC: 3.76474 (Simulation time: 0 hr 22 min 5 sec) 
Heartbeat CPU 0 instructions: 370000001 cycles: 98290852 heartbeat IPC: 3.74986 cumulative IPC: 3.76434 (Simulation time: 0 hr 22 min 38 sec) 
Heartbeat CPU 0 instructions: 380000000 cycles: 100929176 heartbeat IPC: 3.79028 cumulative IPC: 3.76502 (Simulation time: 0 hr 23 min 13 sec) 
Heartbeat CPU 0 instructions: 390000002 cycles: 103585645 heartbeat IPC: 3.7644 cumulative IPC: 3.765 (Simulation time: 0 hr 23 min 57 sec) 
Heartbeat CPU 0 instructions: 400000000 cycles: 106219545 heartbeat IPC: 3.79665 cumulative IPC: 3.76579 (Simulation time: 0 hr 24 min 43 sec) 
Heartbeat CPU 0 instructions: 410000003 cycles: 108865278 heartbeat IPC: 3.77967 cumulative IPC: 3.76612 (Simulation time: 0 hr 25 min 23 sec) 
Heartbeat CPU 0 instructions: 420000001 cycles: 111517231 heartbeat IPC: 3.77081 cumulative IPC: 3.76623 (Simulation time: 0 hr 26 min 13 sec) 
Heartbeat CPU 0 instructions: 430000000 cycles: 114166314 heartbeat IPC: 3.77489 cumulative IPC: 3.76643 (Simulation time: 0 hr 26 min 47 sec) 
Heartbeat CPU 0 instructions: 440000003 cycles: 116806158 heartbeat IPC: 3.7881 cumulative IPC: 3.76692 (Simulation time: 0 hr 27 min 35 sec) 
Heartbeat CPU 0 instructions: 450000001 cycles: 119465761 heartbeat IPC: 3.75996 cumulative IPC: 3.76677 (Simulation time: 0 hr 28 min 34 sec) 
Heartbeat CPU 0 instructions: 460000003 cycles: 122126801 heartbeat IPC: 3.75793 cumulative IPC: 3.76658 (Simulation time: 0 hr 29 min 19 sec) 
Heartbeat CPU 0 instructions: 470000003 cycles: 124802729 heartbeat IPC: 3.73702 cumulative IPC: 3.76594 (Simulation time: 0 hr 30 min 19 sec) 
Heartbeat CPU 0 instructions: 480000000 cycles: 127472485 heartbeat IPC: 3.74566 cumulative IPC: 3.76552 (Simulation time: 0 hr 30 min 58 sec) 
Heartbeat CPU 0 instructions: 490000004 cycles: 130146997 heartbeat IPC: 3.739 cumulative IPC: 3.76497 (Simulation time: 0 hr 31 min 30 sec) 
Heartbeat CPU 0 instructions: 500000003 cycles: 132823918 heartbeat IPC: 3.73563 cumulative IPC: 3.76438 (Simulation time: 0 hr 32 min 3 sec) 

Warmup complete CPU 0 instructions: 500000003 cycles: 132823918 (Simulation time: 0 hr 32 min 3 sec) 

Heartbeat CPU 0 instructions: 510000003 cycles: 138761112 heartbeat IPC: 1.6843 cumulative IPC: 1.6843 (Simulation time: 0 hr 32 min 32 sec) 
Heartbeat CPU 0 instructions: 520000001 cycles: 144725432 heartbeat IPC: 1.67664 cumulative IPC: 1.68046 (Simulation time: 0 hr 33 min 2 sec) 
Heartbeat CPU 0 instructions: 530000000 cycles: 151657717 heartbeat IPC: 1.44253 cumulative IPC: 1.59288 (Simulation time: 0 hr 34 min 2 sec) 
Heartbeat CPU 0 instructions: 540000000 cycles: 158227739 heartbeat IPC: 1.52206 cumulative IPC: 1.57457 (Simulation time: 0 hr 35 min 5 sec) 
Heartbeat CPU 0 instructions: 550000000 cycles: 164163551 heartbeat IPC: 1.68469 cumulative IPC: 1.59542 (Simulation time: 0 hr 35 min 40 sec) 
Heartbeat CPU 0 instructions: 560000003 cycles: 170122616 heartbeat IPC: 1.67812 cumulative IPC: 1.60864 (Simulation time: 0 hr 36 min 20 sec) 
Heartbeat CPU 0 instructions: 570000000 cycles: 176060698 heartbeat IPC: 1.68404 cumulative IPC: 1.61899 (Simulation time: 0 hr 36 min 54 sec) 
Heartbeat CPU 0 instructions: 580000002 cycles: 181997522 heartbeat IPC: 1.6844 cumulative IPC: 1.62689 (Simulation time: 0 hr 37 min 40 sec) 
Heartbeat CPU 0 instructions: 590000000 cycles: 187937024 heartbeat IPC: 1.68364 cumulative IPC: 1.63301 (Simulation time: 0 hr 38 min 25 sec) 
Heartbeat CPU 0 instructions: 600000001 cycles: 193876712 heartbeat IPC: 1.68359 cumulative IPC: 1.63793 (Simulation time: 0 hr 38 min 56 sec) 
Heartbeat CPU 0 instructions: 610000000 cycles: 199812802 heartbeat IPC: 1.68461 cumulative IPC: 1.64206 (Simulation time: 0 hr 39 min 23 sec) 
Heartbeat CPU 0 instructions: 620000004 cycles: 205770199 heartbeat IPC: 1.67859 cumulative IPC: 1.64505 (Simulation time: 0 hr 39 min 50 sec) 
Heartbeat CPU 0 instructions: 630000000 cycles: 211731568 heartbeat IPC: 1.67747 cumulative IPC: 1.6475 (Simulation time: 0 hr 40 min 17 sec) 
Heartbeat CPU 0 instructions: 640000000 cycles: 217680209 heartbeat IPC: 1.68106 cumulative IPC: 1.64985 (Simulation time: 0 hr 40 min 43 sec) 
Heartbeat CPU 0 instructions: 650000000 cycles: 223632634 heartbeat IPC: 1.67999 cumulative IPC: 1.65182 (Simulation time: 0 hr 41 min 20 sec) 
Heartbeat CPU 0 instructions: 660000003 cycles: 229700884 heartbeat IPC: 1.64792 cumulative IPC: 1.65158 (Simulation time: 0 hr 42 min 4 sec) 
Heartbeat CPU 0 instructions: 670000002 cycles: 235886621 heartbeat IPC: 1.61662 cumulative IPC: 1.64948 (Simulation time: 0 hr 42 min 39 sec) 
Heartbeat CPU 0 instructions: 680000000 cycles: 242144787 heartbeat IPC: 1.59791 cumulative IPC: 1.64653 (Simulation time: 0 hr 43 min 18 sec) 
Heartbeat CPU 0 instructions: 690000000 cycles: 248336293 heartbeat IPC: 1.61512 cumulative IPC: 1.64485 (Simulation time: 0 hr 44 min 6 sec) 
Heartbeat CPU 0 instructions: 700000001 cycles: 254460325 heartbeat IPC: 1.63291 cumulative IPC: 1.64424 (Simulation time: 0 hr 44 min 51 sec) 
Heartbeat CPU 0 instructions: 710000000 cycles: 260718000 heartbeat IPC: 1.59804 cumulative IPC: 1.64198 (Simulation time: 0 hr 45 min 27 sec) 
Heartbeat CPU 0 instructions: 720000000 cycles: 267141739 heartbeat IPC: 1.55673 cumulative IPC: 1.63791 (Simulation time: 0 hr 46 min 3 sec) 
Heartbeat CPU 0 instructions: 730000003 cycles: 273428502 heartbeat IPC: 1.59064 cumulative IPC: 1.63579 (Simulation time: 0 hr 46 min 40 sec) 
Heartbeat CPU 0 instructions: 740000001 cycles: 279603036 heartbeat IPC: 1.61956 cumulative IPC: 1.63511 (Simulation time: 0 hr 47 min 26 sec) 
Heartbeat CPU 0 instructions: 750000002 cycles: 285901442 heartbeat IPC: 1.5877 cumulative IPC: 1.63316 (Simulation time: 0 hr 48 min 4 sec) 
Heartbeat CPU 0 instructions: 760000000 cycles: 292089702 heartbeat IPC: 1.61596 cumulative IPC: 1.63249 (Simulation time: 0 hr 48 min 48 sec) 
Heartbeat CPU 0 instructions: 770000000 cycles: 298167103 heartbeat IPC: 1.64544 cumulative IPC: 1.63297 (Simulation time: 0 hr 49 min 15 sec) 
Heartbeat CPU 0 instructions: 780000003 cycles: 304335730 heartbeat IPC: 1.62111 cumulative IPC: 1.63254 (Simulation time: 0 hr 49 min 42 sec) 
Heartbeat CPU 0 instructions: 790000000 cycles: 310391890 heartbeat IPC: 1.65121 cumulative IPC: 1.63318 (Simulation time: 0 hr 50 min 10 sec) 
Heartbeat CPU 0 instructions: 800000003 cycles: 316545692 heartbeat IPC: 1.62501 cumulative IPC: 1.6329 (Simulation time: 0 hr 50 min 38 sec) 
Heartbeat CPU 0 instructions: 810000001 cycles: 322699033 heartbeat IPC: 1.62513 cumulative IPC: 1.63265 (Simulation time: 0 hr 51 min 5 sec) 
Heartbeat CPU 0 instructions: 820000001 cycles: 328830879 heartbeat IPC: 1.63083 cumulative IPC: 1.6326 (Simulation time: 0 hr 51 min 33 sec) 
Heartbeat CPU 0 instructions: 830000000 cycles: 334890419 heartbeat IPC: 1.65029 cumulative IPC: 1.63313 (Simulation time: 0 hr 52 min 1 sec) 
Heartbeat CPU 0 instructions: 840000004 cycles: 341049092 heartbeat IPC: 1.62373 cumulative IPC: 1.63285 (Simulation time: 0 hr 52 min 30 sec) 
Heartbeat CPU 0 instructions: 850000002 cycles: 347097400 heartbeat IPC: 1.65335 cumulative IPC: 1.63343 (Simulation time: 0 hr 53 min 6 sec) 
Heartbeat CPU 0 instructions: 860000004 cycles: 353257850 heartbeat IPC: 1.62326 cumulative IPC: 1.63314 (Simulation time: 0 hr 53 min 56 sec) 
Heartbeat CPU 0 instructions: 870000000 cycles: 359313815 heartbeat IPC: 1.65126 cumulative IPC: 1.63363 (Simulation time: 0 hr 54 min 28 sec) 
Heartbeat CPU 0 instructions: 880000000 cycles: 365513348 heartbeat IPC: 1.61302 cumulative IPC: 1.63308 (Simulation time: 0 hr 54 min 56 sec) 
Heartbeat CPU 0 instructions: 890000002 cycles: 371576027 heartbeat IPC: 1.64944 cumulative IPC: 1.63349 (Simulation time: 0 hr 55 min 23 sec) 
Heartbeat CPU 0 instructions: 900000001 cycles: 377742541 heartbeat IPC: 1.62166 cumulative IPC: 1.6332 (Simulation time: 0 hr 55 min 52 sec) 
Heartbeat CPU 0 instructions: 910000000 cycles: 383963771 heartbeat IPC: 1.6074 cumulative IPC: 1.63256 (Simulation time: 0 hr 56 min 22 sec) 
Heartbeat CPU 0 instructions: 920000002 cycles: 390031834 heartbeat IPC: 1.64797 cumulative IPC: 1.63292 (Simulation time: 0 hr 56 min 57 sec) 
Heartbeat CPU 0 instructions: 930000002 cycles: 396099779 heartbeat IPC: 1.648 cumulative IPC: 1.63327 (Simulation time: 0 hr 57 min 46 sec) 
Heartbeat CPU 0 instructions: 940000003 cycles: 402328827 heartbeat IPC: 1.60538 cumulative IPC: 1.63262 (Simulation time: 0 hr 58 min 27 sec) 
Heartbeat CPU 0 instructions: 950000002 cycles: 408657912 heartbeat IPC: 1.58001 cumulative IPC: 1.63142 (Simulation time: 0 hr 59 min 8 sec) 
Heartbeat CPU 0 instructions: 960000000 cycles: 414851630 heartbeat IPC: 1.61454 cumulative IPC: 1.63105 (Simulation time: 0 hr 59 min 36 sec) 
Heartbeat CPU 0 instructions: 970000002 cycles: 421069139 heartbeat IPC: 1.60836 cumulative IPC: 1.63056 (Simulation time: 1 hr 0 min 4 sec) 
Heartbeat CPU 0 instructions: 980000003 cycles: 427567207 heartbeat IPC: 1.53892 cumulative IPC: 1.62854 (Simulation time: 1 hr 0 min 32 sec) 
Heartbeat CPU 0 instructions: 990000002 cycles: 433729285 heartbeat IPC: 1.62283 cumulative IPC: 1.62842 (Simulation time: 1 hr 1 min 0 sec) 
Heartbeat CPU 0 instructions: 1000000000 cycles: 440003173 heartbeat IPC: 1.59391 cumulative IPC: 1.62771 (Simulation time: 1 hr 1 min 28 sec) 
Heartbeat CPU 0 instructions: 1010000000 cycles: 446201452 heartbeat IPC: 1.61335 cumulative IPC: 1.62743 (Simulation time: 1 hr 1 min 56 sec) 
Heartbeat CPU 0 instructions: 1020000003 cycles: 452244528 heartbeat IPC: 1.65479 cumulative IPC: 1.62795 (Simulation time: 1 hr 2 min 23 sec) 
Heartbeat CPU 0 instructions: 1030000002 cycles: 458331778 heartbeat IPC: 1.64278 cumulative IPC: 1.62822 (Simulation time: 1 hr 2 min 51 sec) 
Heartbeat CPU 0 instructions: 1040000002 cycles: 464345928 heartbeat IPC: 1.66275 cumulative IPC: 1.62885 (Simulation time: 1 hr 3 min 19 sec) 
Heartbeat CPU 0 instructions: 1050000002 cycles: 470279728 heartbeat IPC: 1.68526 cumulative IPC: 1.62984 (Simulation time: 1 hr 3 min 47 sec) 
Heartbeat CPU 0 instructions: 1060000000 cycles: 476243571 heartbeat IPC: 1.67677 cumulative IPC: 1.63066 (Simulation time: 1 hr 4 min 29 sec) 
Heartbeat CPU 0 instructions: 1070000001 cycles: 482196349 heartbeat IPC: 1.67989 cumulative IPC: 1.6315 (Simulation time: 1 hr 5 min 19 sec) 
Heartbeat CPU 0 instructions: 1080000002 cycles: 488129606 heartbeat IPC: 1.68542 cumulative IPC: 1.6324 (Simulation time: 1 hr 6 min 8 sec) 
Heartbeat CPU 0 instructions: 1090000004 cycles: 494066283 heartbeat IPC: 1.68444 cumulative IPC: 1.63325 (Simulation time: 1 hr 6 min 57 sec) 
Heartbeat CPU 0 instructions: 1100000002 cycles: 500015728 heartbeat IPC: 1.68083 cumulative IPC: 1.63402 (Simulation time: 1 hr 7 min 42 sec) 
Heartbeat CPU 0 instructions: 1110000004 cycles: 505953016 heartbeat IPC: 1.68427 cumulative IPC: 1.63482 (Simulation time: 1 hr 8 min 10 sec) 
Heartbeat CPU 0 instructions: 1120000000 cycles: 511889719 heartbeat IPC: 1.68444 cumulative IPC: 1.6356 (Simulation time: 1 hr 8 min 38 sec) 
Heartbeat CPU 0 instructions: 1130000001 cycles: 517850399 heartbeat IPC: 1.67766 cumulative IPC: 1.63625 (Simulation time: 1 hr 9 min 6 sec) 
Heartbeat CPU 0 instructions: 1140000003 cycles: 523713886 heartbeat IPC: 1.70547 cumulative IPC: 1.63729 (Simulation time: 1 hr 9 min 34 sec) 
Heartbeat CPU 0 instructions: 1150000002 cycles: 529509226 heartbeat IPC: 1.72552 cumulative IPC: 1.63858 (Simulation time: 1 hr 10 min 2 sec) 
Heartbeat CPU 0 instructions: 1160000000 cycles: 537099680 heartbeat IPC: 1.31744 cumulative IPC: 1.63255 (Simulation time: 1 hr 11 min 36 sec) 
Heartbeat CPU 0 instructions: 1170000002 cycles: 543026742 heartbeat IPC: 1.68718 cumulative IPC: 1.63334 (Simulation time: 1 hr 12 min 9 sec) 
Heartbeat CPU 0 instructions: 1180000002 cycles: 548965743 heartbeat IPC: 1.68378 cumulative IPC: 1.63406 (Simulation time: 1 hr 12 min 35 sec) 
Heartbeat CPU 0 instructions: 1190000004 cycles: 554900382 heartbeat IPC: 1.68502 cumulative IPC: 1.63477 (Simulation time: 1 hr 13 min 2 sec) 
Heartbeat CPU 0 instructions: 1200000000 cycles: 560834935 heartbeat IPC: 1.68505 cumulative IPC: 1.63547 (Simulation time: 1 hr 13 min 29 sec) 
Heartbeat CPU 0 instructions: 1210000002 cycles: 566773470 heartbeat IPC: 1.68392 cumulative IPC: 1.63613 (Simulation time: 1 hr 13 min 56 sec) 
Heartbeat CPU 0 instructions: 1220000004 cycles: 572713928 heartbeat IPC: 1.68337 cumulative IPC: 1.63677 (Simulation time: 1 hr 14 min 23 sec) 
Heartbeat CPU 0 instructions: 1230000002 cycles: 578649636 heartbeat IPC: 1.68472 cumulative IPC: 1.63741 (Simulation time: 1 hr 14 min 49 sec) 
Heartbeat CPU 0 instructions: 1240000003 cycles: 584599328 heartbeat IPC: 1.68076 cumulative IPC: 1.63798 (Simulation time: 1 hr 15 min 15 sec) 
Heartbeat CPU 0 instructions: 1250000004 cycles: 590549576 heartbeat IPC: 1.6806 cumulative IPC: 1.63854 (Simulation time: 1 hr 15 min 42 sec) 
Heartbeat CPU 0 instructions: 1260000002 cycles: 596477252 heartbeat IPC: 1.687 cumulative IPC: 1.63916 (Simulation time: 1 hr 16 min 8 sec) 
Heartbeat CPU 0 instructions: 1270000000 cycles: 602413778 heartbeat IPC: 1.68449 cumulative IPC: 1.63973 (Simulation time: 1 hr 16 min 35 sec) 
Heartbeat CPU 0 instructions: 1280000002 cycles: 608351026 heartbeat IPC: 1.68428 cumulative IPC: 1.64029 (Simulation time: 1 hr 17 min 1 sec) 
Heartbeat CPU 0 instructions: 1290000001 cycles: 614303106 heartbeat IPC: 1.68008 cumulative IPC: 1.64078 (Simulation time: 1 hr 17 min 28 sec) 
Heartbeat CPU 0 instructions: 1300000002 cycles: 620321805 heartbeat IPC: 1.66149 cumulative IPC: 1.64103 (Simulation time: 1 hr 17 min 54 sec) 
Heartbeat CPU 0 instructions: 1310000001 cycles: 626433182 heartbeat IPC: 1.63629 cumulative IPC: 1.64097 (Simulation time: 1 hr 18 min 21 sec) 
Heartbeat CPU 0 instructions: 1320000000 cycles: 632512683 heartbeat IPC: 1.64487 cumulative IPC: 1.64102 (Simulation time: 1 hr 18 min 48 sec) 
Heartbeat CPU 0 instructions: 1330000000 cycles: 638590434 heartbeat IPC: 1.64535 cumulative IPC: 1.64107 (Simulation time: 1 hr 19 min 15 sec) 
Heartbeat CPU 0 instructions: 1340000000 cycles: 644761056 heartbeat IPC: 1.62058 cumulative IPC: 1.64083 (Simulation time: 1 hr 20 min 0 sec) 
Heartbeat CPU 0 instructions: 1350000003 cycles: 650926491 heartbeat IPC: 1.62195 cumulative IPC: 1.6406 (Simulation time: 1 hr 20 min 50 sec) 
Heartbeat CPU 0 instructions: 1360000002 cycles: 657081654 heartbeat IPC: 1.62465 cumulative IPC: 1.64041 (Simulation time: 1 hr 21 min 39 sec) 
Heartbeat CPU 0 instructions: 1370000000 cycles: 663500824 heartbeat IPC: 1.55783 cumulative IPC: 1.63942 (Simulation time: 1 hr 22 min 29 sec) 
Heartbeat CPU 0 instructions: 1380000003 cycles: 669686201 heartbeat IPC: 1.61672 cumulative IPC: 1.63915 (Simulation time: 1 hr 23 min 19 sec) 
Heartbeat CPU 0 instructions: 1390000001 cycles: 676201489 heartbeat IPC: 1.53485 cumulative IPC: 1.6379 (Simulation time: 1 hr 24 min 8 sec) 
Heartbeat CPU 0 instructions: 1400000004 cycles: 682438418 heartbeat IPC: 1.60335 cumulative IPC: 1.63751 (Simulation time: 1 hr 24 min 58 sec) 
Heartbeat CPU 0 instructions: 1410000000 cycles: 688573961 heartbeat IPC: 1.62985 cumulative IPC: 1.63743 (Simulation time: 1 hr 25 min 47 sec) 
Heartbeat CPU 0 instructions: 1420000002 cycles: 694788135 heartbeat IPC: 1.60922 cumulative IPC: 1.63711 (Simulation time: 1 hr 26 min 33 sec) 
Heartbeat CPU 0 instructions: 1430000001 cycles: 700952897 heartbeat IPC: 1.62212 cumulative IPC: 1.63695 (Simulation time: 1 hr 27 min 0 sec) 
Heartbeat CPU 0 instructions: 1440000001 cycles: 707297587 heartbeat IPC: 1.57612 cumulative IPC: 1.63628 (Simulation time: 1 hr 27 min 28 sec) 
Heartbeat CPU 0 instructions: 1450000000 cycles: 713476500 heartbeat IPC: 1.61841 cumulative IPC: 1.63609 (Simulation time: 1 hr 27 min 56 sec) 
Heartbeat CPU 0 instructions: 1460000001 cycles: 719664112 heartbeat IPC: 1.61613 cumulative IPC: 1.63588 (Simulation time: 1 hr 28 min 23 sec) 
Heartbeat CPU 0 instructions: 1470000000 cycles: 725821194 heartbeat IPC: 1.62415 cumulative IPC: 1.63576 (Simulation time: 1 hr 28 min 50 sec) 
Heartbeat CPU 0 instructions: 1480000002 cycles: 732143091 heartbeat IPC: 1.5818 cumulative IPC: 1.63519 (Simulation time: 1 hr 29 min 17 sec) 
Heartbeat CPU 0 instructions: 1490000001 cycles: 738263127 heartbeat IPC: 1.63398 cumulative IPC: 1.63518 (Simulation time: 1 hr 29 min 45 sec) 
Heartbeat CPU 0 instructions: 1500000004 cycles: 744429228 heartbeat IPC: 1.62177 cumulative IPC: 1.63504 (Simulation time: 1 hr 30 min 12 sec) 
Heartbeat CPU 0 instructions: 1510000002 cycles: 750557219 heartbeat IPC: 1.63186 cumulative IPC: 1.63501 (Simulation time: 1 hr 30 min 54 sec) 
Heartbeat CPU 0 instructions: 1520000000 cycles: 756730318 heartbeat IPC: 1.61993 cumulative IPC: 1.63486 (Simulation time: 1 hr 31 min 32 sec) 
Heartbeat CPU 0 instructions: 1530000000 cycles: 762859460 heartbeat IPC: 1.63155 cumulative IPC: 1.63483 (Simulation time: 1 hr 32 min 19 sec) 
Heartbeat CPU 0 instructions: 1540000000 cycles: 769009332 heartbeat IPC: 1.62605 cumulative IPC: 1.63474 (Simulation time: 1 hr 32 min 54 sec) 
Heartbeat CPU 0 instructions: 1550000001 cycles: 775284044 heartbeat IPC: 1.5937 cumulative IPC: 1.63434 (Simulation time: 1 hr 33 min 34 sec) 
Heartbeat CPU 0 instructions: 1560000001 cycles: 781481986 heartbeat IPC: 1.61344 cumulative IPC: 1.63414 (Simulation time: 1 hr 34 min 11 sec) 
Heartbeat CPU 0 instructions: 1570000001 cycles: 787627258 heartbeat IPC: 1.62727 cumulative IPC: 1.63408 (Simulation time: 1 hr 34 min 42 sec) 
Heartbeat CPU 0 instructions: 1580000002 cycles: 793762133 heartbeat IPC: 1.63003 cumulative IPC: 1.63404 (Simulation time: 1 hr 35 min 10 sec) 
Heartbeat CPU 0 instructions: 1590000000 cycles: 799914047 heartbeat IPC: 1.62551 cumulative IPC: 1.63396 (Simulation time: 1 hr 35 min 39 sec) 
Heartbeat CPU 0 instructions: 1600000000 cycles: 806114803 heartbeat IPC: 1.61271 cumulative IPC: 1.63377 (Simulation time: 1 hr 36 min 7 sec) 
Heartbeat CPU 0 instructions: 1610000002 cycles: 812526292 heartbeat IPC: 1.5597 cumulative IPC: 1.63307 (Simulation time: 1 hr 36 min 35 sec) 
Heartbeat CPU 0 instructions: 1620000000 cycles: 818682590 heartbeat IPC: 1.62435 cumulative IPC: 1.63299 (Simulation time: 1 hr 37 min 3 sec) 
Heartbeat CPU 0 instructions: 1630000003 cycles: 824845099 heartbeat IPC: 1.62272 cumulative IPC: 1.6329 (Simulation time: 1 hr 37 min 31 sec) 
Heartbeat CPU 0 instructions: 1640000002 cycles: 831033271 heartbeat IPC: 1.61599 cumulative IPC: 1.63275 (Simulation time: 1 hr 38 min 0 sec) 
Heartbeat CPU 0 instructions: 1650000002 cycles: 837356981 heartbeat IPC: 1.58135 cumulative IPC: 1.63229 (Simulation time: 1 hr 38 min 28 sec) 
Heartbeat CPU 0 instructions: 1660000000 cycles: 843646235 heartbeat IPC: 1.59001 cumulative IPC: 1.63191 (Simulation time: 1 hr 38 min 57 sec) 
Heartbeat CPU 0 instructions: 1670000002 cycles: 849878221 heartbeat IPC: 1.60463 cumulative IPC: 1.63168 (Simulation time: 1 hr 39 min 25 sec) 
Heartbeat CPU 0 instructions: 1680000000 cycles: 856326398 heartbeat IPC: 1.55083 cumulative IPC: 1.63095 (Simulation time: 1 hr 39 min 54 sec) 
Heartbeat CPU 0 instructions: 1690000004 cycles: 862545212 heartbeat IPC: 1.60802 cumulative IPC: 1.63076 (Simulation time: 1 hr 40 min 23 sec) 
Heartbeat CPU 0 instructions: 1700000000 cycles: 868793270 heartbeat IPC: 1.6005 cumulative IPC: 1.6305 (Simulation time: 1 hr 40 min 51 sec) 
Heartbeat CPU 0 instructions: 1710000001 cycles: 875010033 heartbeat IPC: 1.60855 cumulative IPC: 1.63032 (Simulation time: 1 hr 41 min 20 sec) 
Heartbeat CPU 0 instructions: 1720000003 cycles: 881072376 heartbeat IPC: 1.64953 cumulative IPC: 1.63047 (Simulation time: 1 hr 41 min 50 sec) 
Heartbeat CPU 0 instructions: 1730000004 cycles: 887113996 heartbeat IPC: 1.65519 cumulative IPC: 1.63067 (Simulation time: 1 hr 42 min 29 sec) 
Heartbeat CPU 0 instructions: 1740000002 cycles: 893189753 heartbeat IPC: 1.64589 cumulative IPC: 1.63079 (Simulation time: 1 hr 43 min 18 sec) 
Heartbeat CPU 0 instructions: 1750000001 cycles: 899132552 heartbeat IPC: 1.68271 cumulative IPC: 1.6312 (Simulation time: 1 hr 43 min 57 sec) 
Heartbeat CPU 0 instructions: 1760000002 cycles: 905085533 heartbeat IPC: 1.67983 cumulative IPC: 1.63157 (Simulation time: 1 hr 44 min 46 sec) 
Heartbeat CPU 0 instructions: 1770000002 cycles: 911034879 heartbeat IPC: 1.68086 cumulative IPC: 1.63195 (Simulation time: 1 hr 45 min 33 sec) 
Heartbeat CPU 0 instructions: 1780000002 cycles: 916960621 heartbeat IPC: 1.68755 cumulative IPC: 1.63237 (Simulation time: 1 hr 46 min 21 sec) 
Heartbeat CPU 0 instructions: 1790000000 cycles: 922899381 heartbeat IPC: 1.68385 cumulative IPC: 1.63276 (Simulation time: 1 hr 46 min 56 sec) 
Heartbeat CPU 0 instructions: 1800000004 cycles: 928832542 heartbeat IPC: 1.68544 cumulative IPC: 1.63315 (Simulation time: 1 hr 47 min 24 sec) 
Heartbeat CPU 0 instructions: 1810000002 cycles: 934786862 heartbeat IPC: 1.67945 cumulative IPC: 1.63349 (Simulation time: 1 hr 47 min 53 sec) 
Heartbeat CPU 0 instructions: 1820000000 cycles: 940727252 heartbeat IPC: 1.68339 cumulative IPC: 1.63386 (Simulation time: 1 hr 48 min 21 sec) 
Heartbeat CPU 0 instructions: 1830000004 cycles: 946676964 heartbeat IPC: 1.68075 cumulative IPC: 1.6342 (Simulation time: 1 hr 48 min 49 sec) 
Heartbeat CPU 0 instructions: 1840000000 cycles: 952611885 heartbeat IPC: 1.68494 cumulative IPC: 1.63457 (Simulation time: 1 hr 49 min 17 sec) 
Heartbeat CPU 0 instructions: 1850000001 cycles: 958550791 heartbeat IPC: 1.68381 cumulative IPC: 1.63492 (Simulation time: 1 hr 49 min 45 sec) 
Heartbeat CPU 0 instructions: 1860000002 cycles: 964484719 heartbeat IPC: 1.68522 cumulative IPC: 1.63528 (Simulation time: 1 hr 50 min 13 sec) 
Heartbeat CPU 0 instructions: 1870000000 cycles: 970421129 heartbeat IPC: 1.68452 cumulative IPC: 1.63563 (Simulation time: 1 hr 50 min 42 sec) 
Heartbeat CPU 0 instructions: 1880000002 cycles: 976358243 heartbeat IPC: 1.68432 cumulative IPC: 1.63597 (Simulation time: 1 hr 51 min 10 sec) 
Heartbeat CPU 0 instructions: 1890000000 cycles: 982228779 heartbeat IPC: 1.70342 cumulative IPC: 1.63644 (Simulation time: 1 hr 51 min 38 sec) 
Heartbeat CPU 0 instructions: 1900000000 cycles: 988024014 heartbeat IPC: 1.72556 cumulative IPC: 1.63704 (Simulation time: 1 hr 52 min 4 sec) 
Heartbeat CPU 0 instructions: 1910000001 cycles: 995622711 heartbeat IPC: 1.31602 cumulative IPC: 1.63422 (Simulation time: 1 hr 53 min 1 sec) 
Heartbeat CPU 0 instructions: 1920000003 cycles: 1001571612 heartbeat IPC: 1.68098 cumulative IPC: 1.63454 (Simulation time: 1 hr 53 min 28 sec) 
Heartbeat CPU 0 instructions: 1930000001 cycles: 1007509858 heartbeat IPC: 1.684 cumulative IPC: 1.63487 (Simulation time: 1 hr 53 min 55 sec) 
Heartbeat CPU 0 instructions: 1940000000 cycles: 1013452996 heartbeat IPC: 1.68261 cumulative IPC: 1.63519 (Simulation time: 1 hr 54 min 22 sec) 
Heartbeat CPU 0 instructions: 1950000002 cycles: 1019390874 heartbeat IPC: 1.6841 cumulative IPC: 1.63552 (Simulation time: 1 hr 54 min 49 sec) 
Heartbeat CPU 0 instructions: 1960000001 cycles: 1025326218 heartbeat IPC: 1.68482 cumulative IPC: 1.63585 (Simulation time: 1 hr 55 min 17 sec) 
Heartbeat CPU 0 instructions: 1970000000 cycles: 1031270458 heartbeat IPC: 1.6823 cumulative IPC: 1.63616 (Simulation time: 1 hr 55 min 44 sec) 
Heartbeat CPU 0 instructions: 1980000001 cycles: 1037206624 heartbeat IPC: 1.68459 cumulative IPC: 1.63648 (Simulation time: 1 hr 56 min 11 sec) 
Heartbeat CPU 0 instructions: 1990000002 cycles: 1043143418 heartbeat IPC: 1.68441 cumulative IPC: 1.63679 (Simulation time: 1 hr 56 min 38 sec) 
*** Reached end of trace: traces/603.bwaves_s-3699B.champsimtrace.xz
Heartbeat CPU 0 instructions: 2000000001 cycles: 1049080236 heartbeat IPC: 1.6844 cumulative IPC: 1.6371 (Simulation time: 1 hr 57 min 5 sec) 
Finished CPU 0 instructions: 1500000001 cycles: 916256326 cumulative IPC: 1.6371 (Simulation time: 1 hr 57 min 5 sec) 

ChampSim completed all CPUs

Region of Interest Statistics

CPU 0 cumulative IPC: 1.6371 instructions: 1500000001 cycles: 916256326
cpu0_DTLB TOTAL     ACCESS:  221487640  HIT:  221483270  MISS:       4370
cpu0_DTLB LOAD      ACCESS:  188348376  HIT:  188347566  MISS:        810
cpu0_DTLB RFO       ACCESS:   33139264  HIT:   33135704  MISS:       3560
cpu0_DTLB PREFETCH  ACCESS:          0  HIT:          0  MISS:          0
cpu0_DTLB WRITEBACK ACCESS:          0  HIT:          0  MISS:          0
cpu0_DTLB TRANSLATION ACCESS:          0  HIT:          0  MISS:          0
cpu0_DTLB PREFETCH  REQUESTED:          0  ISSUED:          0  USEFUL:          0  USELESS:          0
cpu0_DTLB AVERAGE MISS LATENCY: 195.049 cycles
cpu0_ITLB TOTAL     ACCESS:  179520610  HIT:  179520610  MISS:          0
cpu0_ITLB LOAD      ACCESS:  179520610  HIT:  179520610  MISS:          0
cpu0_ITLB RFO       ACCESS:          0  HIT:          0  MISS:          0
cpu0_ITLB PREFETCH  ACCESS:          0  HIT:          0  MISS:          0
cpu0_ITLB WRITEBACK ACCESS:          0  HIT:          0  MISS:          0
cpu0_ITLB TRANSLATION ACCESS:          0  HIT:          0  MISS:          0
cpu0_ITLB PREFETCH  REQUESTED:          0  ISSUED:          0  USEFUL:          0  USELESS:          0
cpu0_ITLB AVERAGE MISS LATENCY: -nan cycles
cpu0_L1I TOTAL     ACCESS:    7964996  HIT:    7964996  MISS:          0
cpu0_L1I LOAD      ACCESS:    7964996  HIT:    7964996  MISS:          0
cpu0_L1I RFO       ACCESS:          0  HIT:          0  MISS:          0
cpu0_L1I PREFETCH  ACCESS:          0  HIT:          0  MISS:          0
cpu0_L1I WRITEBACK ACCESS:          0  HIT:          0  MISS:          0
cpu0_L1I TRANSLATION ACCESS:          0  HIT:          0  MISS:          0
cpu0_L1I PREFETCH  REQUESTED:          0  ISSUED:          0  USEFUL:          0  USELESS:          0
cpu0_L1I AVERAGE MISS LATENCY: -nan cycles
cpu0_STLB TOTAL     ACCESS:       4370  HIT:        126  MISS:       4244
cpu0_STLB LOAD      ACCESS:        810  HIT:         96  MISS:        714
cpu0_STLB RFO       ACCESS:       3560  HIT:         30  MISS:       3530
cpu0_STLB PREFETCH  ACCESS:          0  HIT:          0  MISS:          0
cpu0_STLB WRITEBACK ACCESS:          0  HIT:          0  MISS:          0
cpu0_STLB TRANSLATION ACCESS:          0  HIT:          0  MISS:          0
cpu0_STLB PREFETCH  REQUESTED:          0  ISSUED:          0  USEFUL:          0  USELESS:          0
cpu0_STLB AVERAGE MISS LATENCY: 191.573 cycles
cpu0_L1D TOTAL     ACCESS:  249022757  HIT:  248747913  MISS:     274844
cpu0_L1D LOAD      ACCESS:  193224374  HIT:  193176141  MISS:      48233
cpu0_L1D RFO       ACCESS:   55794142  HIT:   55567645  MISS:     226497
cpu0_L1D PREFETCH  ACCESS:          0  HIT:          0  MISS:          0
cpu0_L1D WRITEBACK ACCESS:          0  HIT:          0  MISS:          0
cpu0_L1D TRANSLATION ACCESS:       4241  HIT:       4127  MISS:        114
cpu0_L1D PREFETCH  REQUESTED:          0  ISSUED:          0  USEFUL:          0  USELESS:          0
cpu0_L1D AVERAGE MISS LATENCY: 275.016 cycles
cpu0_L2C TOTAL     ACCESS:     500443  HIT:     229088  MISS:     271355
cpu0_L2C LOAD      ACCESS:      48233  HIT:       2966  MISS:      45267
cpu0_L2C RFO       ACCESS:     226497  HIT:        663  MISS:     225834
cpu0_L2C PREFETCH  ACCESS:          0  HIT:          0  MISS:          0
cpu0_L2C WRITEBACK ACCESS:     225599  HIT:     225355  MISS:        244
cpu0_L2C TRANSLATION ACCESS:        114  HIT:        104  MISS:         10
cpu0_L2C PREFETCH  REQUESTED:          0  ISSUED:          0  USEFUL:          0  USELESS:          0
cpu0_L2C AVERAGE MISS LATENCY: 267.408 cycles
LLC TOTAL     ACCESS:     495727  HIT:     224390  MISS:     271337
LLC LOAD      ACCESS:      45267  HIT:          2  MISS:      45265
LLC RFO       ACCESS:     225834  HIT:         12  MISS:     225822
LLC PREFETCH  ACCESS:          0  HIT:          0  MISS:          0
LLC WRITEBACK ACCESS:     224616  HIT:     224376  MISS:        240
LLC TRANSLATION ACCESS:         10  HIT:          0  MISS:         10
LLC PREFETCH  REQUESTED:          0  ISSUED:          0  USEFUL:          0  USELESS:          0
LLC AVERAGE MISS LATENCY: 246.443 cycles
~~~~~~~~~~Reuse Distance Profiler output~~~~~~~~~~
0	56828128	28518576
1	73172224	66544160
2	53486704	47751952
3	36592304	34006160
4	20001872	18164864
5	11080240	9764416
6	9169952	7670688
7	9448688	7586992
8	8241920	6717824
9	7242304	5946992
10	5662576	4748720
11	4916176	3230384
12	4350688	3115600
13	3729088	2464080
14	3081872	1821424
15	2603776	1866880
16	2035536	1590416
17	1901488	1587040
18	1831712	1447696
19	1669856	1314656
20	1684528	1370320
21	1444704	1226000
22	1105904	869184
23	1115152	861472
24	1032944	759520
25	889888	619744
26	703168	540496
27	828864	569552
28	692384	521648
29	743408	515168
30	725952	591520
31	599392	427024
32	549968	478048
33	438400	346896
34	492160	388480
35	513824	439280
36	492704	326400
37	398912	281168
38	280432	201824
39	276320	205472
40	325008	224048
41	230160	157472
42	348288	257728
43	344720	257088
44	259328	181008
45	233504	175632
46	286768	229136
47	241824	172080
48	288128	217792
49	231760	175792
50	254672	141984
51	326656	184992
52	225184	165392
53	242304	169760
54	190304	128464
55	198112	118928
56	149936	117824
57	123088	72560
58	166800	85136
59	141040	83520
60	191600	101520
61	101120	43968
62	125472	50496
63	166816	114128
64	159456	65232
66	204416	129136
68	208432	141328
70	196976	139600
72	184128	120816
74	187680	120288
76	176032	107664
78	142608	102176
80	171248	134784
82	170272	118704
84	194352	133168
86	166112	123888
88	236704	197152
90	169984	132080
92	286480	173232
94	177952	103104
96	114608	63600
98	124400	72000
100	91376	68624
102	93312	77088
104	253792	198352
106	101552	74576
108	116144	83472
110	119296	82912
112	68512	50016
114	70144	41328
116	92528	57552
118	104208	58640
120	94048	73072
122	120192	90448
124	81584	58192
126	144320	99840
128	183168	108320
132	220992	158848
136	236496	175104
140	179984	144304
144	135568	72720
148	129408	86736
152	116784	60256
156	95456	45184
160	279920	180464
164	260992	176896
168	242656	213200
172	96928	55168
176	85920	53776
180	102224	72304
184	91824	55264
188	89264	60496
192	136432	97952
196	140352	89696
200	101264	54112
204	81952	29600
208	91648	32448
212	147168	94656
216	169952	110336
220	94208	78208
224	67472	42704
228	57776	22000
232	92944	54352
236	105040	63488
240	104800	67344
244	85040	61888
248	30048	14816
252	169344	148944
256	192480	72464
264	202048	56864
272	168192	90240
280	321120	82752
288	205216	46944
296	356448	71488
304	104064	28784
312	229584	51040
320	456416	234224
328	273536	142672
336	163312	26272
344	112464	89680
352	148112	82784
360	472816	420624
368	97120	68656
376	59024	29360
384	94912	39392
392	52720	10144
400	86240	68544
408	70848	48880
416	87824	68976
424	161200	84448
432	76560	21904
440	54768	20640
448	89824	31248
456	89040	48192
464	163264	73376
472	74240	44368
480	108240	32160
488	161936	96576
496	91184	24352
504	32368	20384
512	156304	71728
528	89616	29664
544	112912	60784
560	77376	42512
576	117184	81280
592	103152	56608
608	80416	55008
624	167536	30016
640	80560	55008
656	39664	18512
672	101616	46992
688	70512	38016
704	114944	93840
720	88752	39024
736	63648	39504
752	97184	28160
768	121936	56016
784	68720	30544
800	55712	20416
816	70384	18176
832	54768	15312
848	44304	15488
864	79776	43520
880	43872	15952
896	93696	49776
912	71232	58448
928	100032	89600
944	24400	15312
960	15424	7152
976	18704	16896
992	21152	11584
1008	33392	27376
1024	79808	63712
1056	30928	13568
1088	35552	16192
1120	44944	26320
1152	96848	45072
1184	49616	20384
1216	28080	9584
1248	50544	14272
1280	64080	28400
1312	49840	33952
1344	69072	54112
1376	46208	32240
1408	19936	8320
1440	14992	4112
1472	13376	4272
1504	10800	4896
1536	15584	5072
1568	13120	3984
1600	11664	3520
1632	12144	4000
1664	14992	7472
1696	11792	6192
1728	16496	7360
1760	12640	4816
1792	11728	6048
1824	18848	8032
1856	10688	5376
1888	9840	4944
1920	8160	3632
1952	12016	6272
1984	17952	13488
2016	21280	13760
2048	30320	17280
2112	32784	21264
2176	26864	12080
2240	32208	15504
2304	37808	24336
2368	29216	15120
2432	31472	12256
2496	21984	8832
2560	20784	8752
2624	15376	5840
2688	18272	8752
2752	13472	5344
2816	11440	3536
2880	9488	4320
2944	8672	3984
3008	6848	2576
3072	5408	1088
3136	5616	1456
3200	5120	1792
3264	3600	672
3328	11680	9312
3392	11808	9984
3456	4528	1968
3520	18128	16032
3584	2240	288
3648	11120	9664
3712	6976	272
3776	3120	1600
3840	8848	7424
3904	34096	24640
3968	12704	864
4032	24000	3984
4096	33952	13712
4224	9792	5952
4352	4992	1984
4480	6064	3024
4608	11408	2416
4736	9904	6880
4864	14576	8448
4992	13232	4336
5120	13952	4560
5248	15008	1360
5376	4128	816
5504	5760	1456
5632	13376	11072
5760	3440	1360
5888	4272	2496
6016	3216	1424
6144	5088	1696
6272	1744	352
6400	2256	240
6528	6016	3584
6656	9392	5184
6784	7712	3024
6912	5920	2224
7040	5184	2112
7168	6464	2688
7296	12544	7152
7424	17488	10720
7552	11392	5280
7680	12816	5760
7808	13360	3744
7936	12016	4304
8064	9328	4336
8192	10688	5184
8448	10560	5408
8704	13328	5968
8960	13616	7408
9216	24096	15968
9472	10272	5616
9728	2528	880
9984	1344	368
10240	1344	560
10496	832	128
10752	5888	5456
11008	23536	21760
11264	6064	4480
11520	33888	33424
11776	11952	9712
12032	15776	11376
12288	16704	8080
12544	13216	9088
12800	9152	4320
13056	7520	1536
13312	6512	1072
13568	10320	416
13824	12128	1664
14080	8288	672
14336	6416	416
14592	7536	816
14848	5072	816
15104	6800	2016
15360	5808	528
15616	10784	6912
15872	15040	4192
16128	15904	11088
16384	11280	5632
16896	19792	11008
17408	19456	7472
17920	11952	5664
18432	17440	2720
18944	27536	6144
19456	30480	4240
19968	37216	12480
20480	37408	17168
20992	31072	11984
21504	50064	17952
22016	42016	19344
22528	39280	24304
23040	35008	14736
23552	22864	12560
24064	14448	8144
24576	9408	4272
25088	5264	2048
25600	2032	864
26112	3904	2480
26624	5904	1712
27136	6400	3984
27648	10544	5280
28160	7840	3776
28672	8304	3664
29184	11120	5872
29696	10208	4096
30208	15408	4832
30720	12608	5664
31232	7744	3568
31744	14544	8224
32256	7488	3184
32768	15344	8736
33792	6944	4848
34816	5792	1040
35840	5520	512
36864	3488	640
37888	3200	784
38912	4256	928
39936	2128	512
40960	864	336
41984	768	240
43008	368	176
44032	224	96
45056	400	96
46080	1168	64
47104	576	80
48128	1968	288
49152	2128	96
50176	1184	80
51200	1648	160
52224	960	80
53248	736	96
54272	656	48
55296	48	0
56320	0	0
57344	112	0
58368	160	0
59392	320	32
60416	240	16
61440	224	160
62464	176	0
63488	320	112
64512	128	16
65536	512	144
67584	208	16
69632	64	0
71680	80	48
73728	144	0
75776	48	16
77824	0	0
79872	0	0
81920	16	0
83968	16	16
86016	16	0
88064	4816	4816
90112	4176	2912
92160	3344	2608
94208	1872	1520
96256	1968	928
98304	640	0
100352	16	0
102400	0	0
104448	0	0
106496	16	16
108544	16	0
110592	2320	672
112640	2512	2512
114688	1744	880
116736	20032	15296
118784	14576	8976
120832	11584	7680
122880	8928	6768
124928	8352	5616
126976	9104	6416
129024	6464	4400
131072	2352	1456
135168	1104	496
139264	192	144
143360	112	80
147456	144	80
151552	16	16
155648	1440	848
159744	8720	5984
163840	2880	1984
167936	6624	4704
172032	6624	4592
176128	1344	880
180224	400	144
184320	112	16
188416	128	80
192512	64	48
196608	96	0
200704	80	16
204800	80	32
208896	32	0
212992	0	0
217088	64	0
221184	80	32
225280	48	16
229376	96	80
233472	272	160
237568	528	272
241664	112	64
245760	304	208
249856	320	160
253952	288	176
258048	128	80
262144	240	128
270336	208	48
278528	256	48
286720	208	64
294912	352	144
303104	176	96
311296	48	16
319488	128	64
327680	144	48
335872	192	176
344064	208	160
352256	128	48
360448	16	0
368640	80	0
376832	32	16
385024	32	0
393216	32	16
401408	80	0
409600	16	0
417792	16	16
425984	16	16
434176	16	0
442368	16	0
450560	0	0
458752	32	0
466944	0	0
475136	16	0
483328	0	0
491520	0	0
499712	0	0
507904	0	0
516096	0	0
524288	0	0
540672	0	0
557056	0	0
573440	0	0
589824	0	0
606208	0	0
622592	0	0
638976	0	0
655360	16	16
671744	16	16
688128	0	0
704512	0	0
720896	0	0
737280	0	0
753664	0	0
770048	0	0
786432	0	0
802816	0	0
819200	0	0
835584	16	16
851968	0	0
868352	32	32
884736	0	0
901120	32	32
917504	0	0
933888	0	0
950272	32	32
966656	0	0
983040	16	16
999424	32	32
1015808	16	16
1032192	0	0
1048576	48	48
1081344	96	96
1114112	272	272
1146880	48	48
1179648	32	32
1212416	80	80
1245184	128	128
1277952	128	128
1310720	176	160
1343488	112	64
1376256	336	112
1409024	64	32
1441792	144	144
1474560	80	80
1507328	0	0
1540096	16	16
1572864	0	0
1605632	32	32
1638400	80	80
1671168	0	0
1703936	0	0
1736704	32	32
1769472	32	32
1802240	0	0
1835008	0	0
1867776	0	0
1900544	0	0
1933312	0	0
1966080	0	0
1998848	0	0
2031616	0	0
2064384	0	0
2097152	16	16
2162688	32	32
2228224	0	0
2293760	0	0
2359296	16	16
2424832	0	0
2490368	0	0
2555904	0	0
2621440	16	16
2686976	0	0
2752512	0	0
2818048	16	16
2883584	0	0
2949120	16	16
3014656	0	0
3080192	0	0
3145728	0	0
3211264	0	0
3276800	0	0
3342336	0	0
3407872	0	0
3473408	0	0
3538944	0	0
3604480	0	0
3670016	32	32
3735552	0	0
3801088	32	32
3866624	32	32
3932160	0	0
3997696	0	0
4063232	0	0
4128768	0	0
4194304	0	0
4325376	0	0
4456448	16	16
4587520	16	16
4718592	0	0
4849664	0	0
4980736	0	0
5111808	0	0
5242880	0	0
5373952	0	0
5505024	0	0
5636096	0	0
5767168	0	0
5898240	16	16
6029312	16	16
6160384	0	0
6291456	0	0
6422528	0	0
6553600	16	16
6684672	0	0
6815744	0	0
6946816	0	0
7077888	0	0
7208960	0	0
7340032	0	0
7471104	0	0
7602176	0	0
7733248	0	0
7864320	0	0
7995392	0	0
8126464	0	0
8257536	0	0
8388608	0	0
8650752	0	0
8912896	0	0
9175040	0	0
9437184	0	0
9699328	0	0
9961472	0	0
10223616	0	0
10485760	0	0
10747904	0	0
11010048	0	0
11272192	0	0
11534336	0	0
11796480	0	0
12058624	0	0
12320768	0	0
12582912	0	0
12845056	0	0
13107200	0	0
13369344	0	0
13631488	0	0
13893632	0	0
14155776	0	0
14417920	0	0
14680064	0	0
14942208	0	0
15204352	0	0
15466496	0	0
15728640	0	0
15990784	0	0
16252928	0	0
16515072	0	0
16777216	0	0
17301504	0	0
17825792	0	0
18350080	0	0
18874368	0	0
19398656	0	0
19922944	0	0
20447232	0	0
20971520	0	0
21495808	0	0
22020096	0	0
22544384	0	0
23068672	0	0
23592960	0	0
24117248	0	0
24641536	0	0
25165824	0	0
25690112	0	0
26214400	0	0
26738688	0	0
27262976	0	0
27787264	0	0
28311552	0	0
28835840	0	0
29360128	0	0
29884416	0	0
30408704	0	0
30932992	0	0
31457280	0	0
31981568	0	0
32505856	0	0
33030144	0	0
33554432	0	0
34603008	0	0
35651584	0	0
36700160	0	0
37748736	0	0
38797312	0	0
39845888	0	0
40894464	0	0
41943040	0	0
42991616	0	0
44040192	0	0
45088768	0	0
46137344	0	0
47185920	0	0
48234496	0	0
49283072	0	0
50331648	0	0
51380224	0	0
52428800	0	0
53477376	0	0
54525952	0	0
55574528	0	0
56623104	0	0
57671680	0	0
58720256	0	0
59768832	0	0
60817408	0	0
61865984	0	0
62914560	0	0
63963136	0	0
65011712	0	0
66060288	0	0
67108864	0	0
69206016	0	0
71303168	0	0
73400320	0	0
75497472	0	0
77594624	0	0
79691776	0	0
81788928	0	0
83886080	0	0
85983232	0	0
88080384	0	0
90177536	0	0
92274688	0	0
94371840	0	0
96468992	0	0
98566144	160	160
100663296	816	816
102760448	5504	5504
104857600	1616	1616
106954752	5568	5568
109051904	752	752
111149056	432	432
113246208	448	448
115343360	464	464
117440512	848	848
119537664	128	128
121634816	96	96
123731968	4480	4480
125829120	128	128
127926272	0	0
130023424	0	0
132120576	0	0
134217728	0	0
138412032	0	0
142606336	0	0
146800640	0	0
150994944	0	0
155189248	0	0
159383552	0	0
163577856	0	0
167772160	0	0
171966464	0	0
176160768	0	0
180355072	0	0
184549376	0	0
188743680	0	0
192937984	0	0
197132288	0	0
201326592	0	0
205520896	0	0
209715200	0	0
213909504	0	0
218103808	0	0
222298112	0	0
226492416	0	0
230686720	0	0
234881024	0	0
239075328	0	0
243269632	0	0
247463936	0	0
251658240	0	0
255852544	0	0
260046848	0	0
264241152	0	0
268435456	0	0
276824064	0	0
285212672	0	0
293601280	0	0
301989888	0	0
310378496	0	0
318767104	0	0
327155712	0	0
335544320	0	0
343932928	0	0
352321536	0	0
360710144	0	0
369098752	0	0
377487360	0	0
385875968	0	0
394264576	0	0
402653184	0	0
411041792	0	0
419430400	0	0
427819008	0	0
436207616	0	0
444596224	0	0
452984832	0	0
461373440	0	0
469762048	0	0
478150656	0	0
486539264	0	0
494927872	0	0
503316480	0	0
511705088	0	0
520093696	0	0
528482304	0	0
536870912	0	0
553648128	0	0
570425344	0	0
587202560	0	0
603979776	0	0
620756992	0	0
637534208	0	0
654311424	0	0
671088640	0	0
687865856	0	0
704643072	0	0
721420288	0	0
738197504	0	0
754974720	0	0
771751936	0	0
788529152	0	0
805306368	0	0
822083584	0	0
838860800	0	0
855638016	0	0
872415232	0	0
889192448	0	0
905969664	0	0
922746880	0	0
939524096	0	0
956301312	0	0
973078528	0	0
989855744	0	0
1006632960	0	0
1023410176	0	0
1040187392	0	0
1056964608	0	0
1073741824	0	0
1107296256	0	0
1140850688	0	0
1174405120	0	0
1207959552	0	0
1241513984	0	0
1275068416	0	0
1308622848	0	0
1342177280	0	0
1375731712	0	0
1409286144	0	0
1442840576	0	0
1476395008	0	0
1509949440	0	0
1543503872	0	0
1577058304	0	0
1610612736	0	0
1644167168	0	0
1677721600	0	0
1711276032	0	0
1744830464	0	0
1778384896	0	0
1811939328	0	0
1845493760	0	0
1879048192	0	0
1912602624	0	0
1946157056	0	0
1979711488	0	0
2013265920	0	0
2046820352	0	0
2080374784	0	0
2113929216	0	0
2147483648	0	0
2214592512	0	0
2281701376	0	0
2348810240	0	0
2415919104	0	0
2483027968	0	0
2550136832	0	0
2617245696	0	0
2684354560	0	0
2751463424	0	0
2818572288	0	0
2885681152	0	0
2952790016	0	0
3019898880	0	0
3087007744	0	0
3154116608	0	0
3221225472	0	0
3288334336	0	0
3355443200	0	0
3422552064	0	0
3489660928	0	0
3556769792	0	0
3623878656	0	0
3690987520	0	0
3758096384	0	0
3825205248	0	0
3892314112	0	0
3959422976	0	0
4026531840	0	0
4093640704	0	0
4160749568	0	0
4227858432	0	0
~~~~~~~~~~Reuse Distance Profiler output end~~~~~~~~~~

DRAM Statistics
 CHANNEL 0
 RQ ROW_BUFFER_HIT:         43  ROW_BUFFER_MISS:     271054
 DBUS AVG_CONGESTED_CYCLE:    3.92093
 WQ ROW_BUFFER_HIT:      20621  ROW_BUFFER_MISS:     203968  FULL:          0


CPU 0 Branch Prediction Accuracy: 80.5104% MPKI: 28.2887 Average ROB Occupancy at Mispredict: 47.548
Branch type MPKI
BRANCH_DIRECT_JUMP: 0
BRANCH_INDIRECT: 0
BRANCH_CONDITIONAL: 28.2887
BRANCH_DIRECT_CALL: 0
BRANCH_INDIRECT_CALL: 0
BRANCH_RETURN: 0

