
*** ChampSim Multicore Out-of-Order Simulator ***

Warmup Instructions: 500000000
Simulation Instructions: 1500000000
Number of CPUs: 1
Off-chip DRAM Size: 4 GiB Channels: 1 Width: 64-bit Data Rate: 3200 MT/s

VirtualMemory physical capacity: 8588881920 num_ppages: 2096895
VirtualMemory page size: 4096 log2_page_size: 12

CPU 0 runs traces/603.bwaves_s-1080B.champsimtrace.xz
CPU 0 Bimodal branch predictor
Basic BTB sets: 1024 ways: 8 indirect buffer size: 4096 RAS size: 64
Initializing LRU.
Initializing LRU.
Initializing LRU.
Initializing LRU.
Initializing rdLRU.
Initializing LRU.
Initializing LRU.
Heartbeat CPU 0 instructions: 10000002 cycles: 2619991 heartbeat IPC: 3.81681 cumulative IPC: 3.81681 (Simulation time: 0 hr 0 min 42 sec) 
Heartbeat CPU 0 instructions: 20000003 cycles: 5202843 heartbeat IPC: 3.87169 cumulative IPC: 3.84405 (Simulation time: 0 hr 1 min 25 sec) 
Heartbeat CPU 0 instructions: 30000003 cycles: 7887804 heartbeat IPC: 3.72445 cumulative IPC: 3.80334 (Simulation time: 0 hr 2 min 6 sec) 
Heartbeat CPU 0 instructions: 40000002 cycles: 10570130 heartbeat IPC: 3.72811 cumulative IPC: 3.78425 (Simulation time: 0 hr 2 min 48 sec) 
Heartbeat CPU 0 instructions: 50000001 cycles: 13250572 heartbeat IPC: 3.73073 cumulative IPC: 3.77342 (Simulation time: 0 hr 3 min 33 sec) 
Heartbeat CPU 0 instructions: 60000003 cycles: 15935810 heartbeat IPC: 3.72407 cumulative IPC: 3.76511 (Simulation time: 0 hr 4 min 7 sec) 
Heartbeat CPU 0 instructions: 70000002 cycles: 18620864 heartbeat IPC: 3.72432 cumulative IPC: 3.75922 (Simulation time: 0 hr 4 min 53 sec) 
Heartbeat CPU 0 instructions: 80000000 cycles: 21304497 heartbeat IPC: 3.72629 cumulative IPC: 3.75508 (Simulation time: 0 hr 5 min 28 sec) 
Heartbeat CPU 0 instructions: 90000002 cycles: 23986593 heartbeat IPC: 3.72843 cumulative IPC: 3.7521 (Simulation time: 0 hr 6 min 18 sec) 
Heartbeat CPU 0 instructions: 100000000 cycles: 26662339 heartbeat IPC: 3.73727 cumulative IPC: 3.75061 (Simulation time: 0 hr 6 min 52 sec) 
Heartbeat CPU 0 instructions: 110000003 cycles: 29336947 heartbeat IPC: 3.73887 cumulative IPC: 3.74954 (Simulation time: 0 hr 7 min 27 sec) 
Heartbeat CPU 0 instructions: 120000003 cycles: 32010620 heartbeat IPC: 3.74017 cumulative IPC: 3.74876 (Simulation time: 0 hr 8 min 4 sec) 
Heartbeat CPU 0 instructions: 130000000 cycles: 34681671 heartbeat IPC: 3.74384 cumulative IPC: 3.74838 (Simulation time: 0 hr 8 min 59 sec) 
Heartbeat CPU 0 instructions: 140000003 cycles: 37354954 heartbeat IPC: 3.74072 cumulative IPC: 3.74783 (Simulation time: 0 hr 9 min 41 sec) 
Heartbeat CPU 0 instructions: 150000002 cycles: 40031618 heartbeat IPC: 3.73599 cumulative IPC: 3.74704 (Simulation time: 0 hr 10 min 29 sec) 
Heartbeat CPU 0 instructions: 160000000 cycles: 42706283 heartbeat IPC: 3.73879 cumulative IPC: 3.74652 (Simulation time: 0 hr 11 min 21 sec) 
Heartbeat CPU 0 instructions: 170000000 cycles: 45383112 heartbeat IPC: 3.73576 cumulative IPC: 3.74589 (Simulation time: 0 hr 12 min 11 sec) 
Heartbeat CPU 0 instructions: 180000003 cycles: 48058553 heartbeat IPC: 3.7377 cumulative IPC: 3.74543 (Simulation time: 0 hr 12 min 59 sec) 
Heartbeat CPU 0 instructions: 190000002 cycles: 50734630 heartbeat IPC: 3.73681 cumulative IPC: 3.74498 (Simulation time: 0 hr 13 min 38 sec) 
Heartbeat CPU 0 instructions: 200000001 cycles: 53410704 heartbeat IPC: 3.73682 cumulative IPC: 3.74457 (Simulation time: 0 hr 14 min 15 sec) 
Heartbeat CPU 0 instructions: 210000003 cycles: 56085338 heartbeat IPC: 3.73883 cumulative IPC: 3.74429 (Simulation time: 0 hr 15 min 9 sec) 
Heartbeat CPU 0 instructions: 220000000 cycles: 58762976 heartbeat IPC: 3.73463 cumulative IPC: 3.74385 (Simulation time: 0 hr 16 min 2 sec) 
Heartbeat CPU 0 instructions: 230000003 cycles: 61438157 heartbeat IPC: 3.73807 cumulative IPC: 3.7436 (Simulation time: 0 hr 16 min 58 sec) 
Heartbeat CPU 0 instructions: 240000000 cycles: 64112107 heartbeat IPC: 3.73978 cumulative IPC: 3.74344 (Simulation time: 0 hr 17 min 39 sec) 
Heartbeat CPU 0 instructions: 250000002 cycles: 66788121 heartbeat IPC: 3.7369 cumulative IPC: 3.74318 (Simulation time: 0 hr 18 min 28 sec) 
Heartbeat CPU 0 instructions: 260000002 cycles: 69464095 heartbeat IPC: 3.73696 cumulative IPC: 3.74294 (Simulation time: 0 hr 19 min 15 sec) 
Heartbeat CPU 0 instructions: 270000002 cycles: 72140454 heartbeat IPC: 3.73642 cumulative IPC: 3.7427 (Simulation time: 0 hr 20 min 2 sec) 
Heartbeat CPU 0 instructions: 280000004 cycles: 74814367 heartbeat IPC: 3.73984 cumulative IPC: 3.7426 (Simulation time: 0 hr 20 min 35 sec) 
Heartbeat CPU 0 instructions: 290000000 cycles: 77489914 heartbeat IPC: 3.73755 cumulative IPC: 3.74242 (Simulation time: 0 hr 21 min 8 sec) 
Heartbeat CPU 0 instructions: 300000000 cycles: 80166063 heartbeat IPC: 3.73671 cumulative IPC: 3.74223 (Simulation time: 0 hr 21 min 43 sec) 
Heartbeat CPU 0 instructions: 310000003 cycles: 82842130 heartbeat IPC: 3.73683 cumulative IPC: 3.74206 (Simulation time: 0 hr 22 min 17 sec) 
Heartbeat CPU 0 instructions: 320000001 cycles: 85517578 heartbeat IPC: 3.73769 cumulative IPC: 3.74192 (Simulation time: 0 hr 22 min 51 sec) 
Heartbeat CPU 0 instructions: 330000003 cycles: 88193182 heartbeat IPC: 3.73747 cumulative IPC: 3.74179 (Simulation time: 0 hr 23 min 31 sec) 
Heartbeat CPU 0 instructions: 340000004 cycles: 90869055 heartbeat IPC: 3.7371 cumulative IPC: 3.74165 (Simulation time: 0 hr 24 min 18 sec) 
Heartbeat CPU 0 instructions: 350000001 cycles: 93541516 heartbeat IPC: 3.74187 cumulative IPC: 3.74165 (Simulation time: 0 hr 25 min 0 sec) 
Heartbeat CPU 0 instructions: 360000003 cycles: 96214361 heartbeat IPC: 3.74133 cumulative IPC: 3.74165 (Simulation time: 0 hr 25 min 51 sec) 
Heartbeat CPU 0 instructions: 370000002 cycles: 98887621 heartbeat IPC: 3.74075 cumulative IPC: 3.74162 (Simulation time: 0 hr 26 min 42 sec) 
Heartbeat CPU 0 instructions: 380000001 cycles: 101560826 heartbeat IPC: 3.74083 cumulative IPC: 3.7416 (Simulation time: 0 hr 27 min 16 sec) 
Heartbeat CPU 0 instructions: 390000003 cycles: 104236462 heartbeat IPC: 3.73743 cumulative IPC: 3.74149 (Simulation time: 0 hr 27 min 50 sec) 
Heartbeat CPU 0 instructions: 400000003 cycles: 106920844 heartbeat IPC: 3.72525 cumulative IPC: 3.74109 (Simulation time: 0 hr 28 min 25 sec) 
Heartbeat CPU 0 instructions: 410000001 cycles: 109606466 heartbeat IPC: 3.72353 cumulative IPC: 3.74066 (Simulation time: 0 hr 29 min 15 sec) 
Heartbeat CPU 0 instructions: 420000003 cycles: 112289461 heartbeat IPC: 3.72718 cumulative IPC: 3.74033 (Simulation time: 0 hr 29 min 50 sec) 
Heartbeat CPU 0 instructions: 430000002 cycles: 114970754 heartbeat IPC: 3.72954 cumulative IPC: 3.74008 (Simulation time: 0 hr 30 min 25 sec) 
Heartbeat CPU 0 instructions: 440000003 cycles: 117654529 heartbeat IPC: 3.7261 cumulative IPC: 3.73976 (Simulation time: 0 hr 30 min 59 sec) 
Heartbeat CPU 0 instructions: 450000000 cycles: 120339706 heartbeat IPC: 3.72415 cumulative IPC: 3.73941 (Simulation time: 0 hr 31 min 33 sec) 
Heartbeat CPU 0 instructions: 460000002 cycles: 123023153 heartbeat IPC: 3.72655 cumulative IPC: 3.73913 (Simulation time: 0 hr 32 min 8 sec) 
Heartbeat CPU 0 instructions: 470000003 cycles: 125583578 heartbeat IPC: 3.9056 cumulative IPC: 3.74253 (Simulation time: 0 hr 32 min 46 sec) 
Heartbeat CPU 0 instructions: 480000003 cycles: 128229810 heartbeat IPC: 3.77896 cumulative IPC: 3.74328 (Simulation time: 0 hr 33 min 20 sec) 
Heartbeat CPU 0 instructions: 490000002 cycles: 130901805 heartbeat IPC: 3.74252 cumulative IPC: 3.74326 (Simulation time: 0 hr 34 min 3 sec) 
Heartbeat CPU 0 instructions: 500000001 cycles: 133571837 heartbeat IPC: 3.74527 cumulative IPC: 3.7433 (Simulation time: 0 hr 35 min 0 sec) 

Warmup complete CPU 0 instructions: 500000001 cycles: 133571837 (Simulation time: 0 hr 35 min 0 sec) 

Heartbeat CPU 0 instructions: 510000001 cycles: 139625371 heartbeat IPC: 1.65193 cumulative IPC: 1.65193 (Simulation time: 0 hr 35 min 46 sec) 
Heartbeat CPU 0 instructions: 520000003 cycles: 145670661 heartbeat IPC: 1.65418 cumulative IPC: 1.65305 (Simulation time: 0 hr 36 min 20 sec) 
Heartbeat CPU 0 instructions: 530000001 cycles: 152207382 heartbeat IPC: 1.52982 cumulative IPC: 1.60983 (Simulation time: 0 hr 36 min 50 sec) 
Heartbeat CPU 0 instructions: 540000000 cycles: 158831282 heartbeat IPC: 1.50968 cumulative IPC: 1.58357 (Simulation time: 0 hr 37 min 33 sec) 
Heartbeat CPU 0 instructions: 550000001 cycles: 165436318 heartbeat IPC: 1.514 cumulative IPC: 1.56915 (Simulation time: 0 hr 38 min 9 sec) 
Heartbeat CPU 0 instructions: 560000002 cycles: 172038748 heartbeat IPC: 1.51459 cumulative IPC: 1.55978 (Simulation time: 0 hr 38 min 56 sec) 
Heartbeat CPU 0 instructions: 570000003 cycles: 178655094 heartbeat IPC: 1.51141 cumulative IPC: 1.55268 (Simulation time: 0 hr 39 min 33 sec) 
Heartbeat CPU 0 instructions: 580000004 cycles: 185259889 heartbeat IPC: 1.51405 cumulative IPC: 1.54775 (Simulation time: 0 hr 40 min 1 sec) 
Heartbeat CPU 0 instructions: 590000003 cycles: 191918145 heartbeat IPC: 1.50189 cumulative IPC: 1.54251 (Simulation time: 0 hr 40 min 43 sec) 
Heartbeat CPU 0 instructions: 600000000 cycles: 198585880 heartbeat IPC: 1.49976 cumulative IPC: 1.53813 (Simulation time: 0 hr 41 min 19 sec) 
Heartbeat CPU 0 instructions: 610000001 cycles: 205254924 heartbeat IPC: 1.49947 cumulative IPC: 1.53453 (Simulation time: 0 hr 42 min 1 sec) 
Heartbeat CPU 0 instructions: 620000001 cycles: 211924034 heartbeat IPC: 1.49945 cumulative IPC: 1.53155 (Simulation time: 0 hr 42 min 43 sec) 
Heartbeat CPU 0 instructions: 630000004 cycles: 218594035 heartbeat IPC: 1.49925 cumulative IPC: 1.52901 (Simulation time: 0 hr 43 min 31 sec) 
Heartbeat CPU 0 instructions: 640000002 cycles: 225168882 heartbeat IPC: 1.52095 cumulative IPC: 1.52843 (Simulation time: 0 hr 44 min 20 sec) 
Heartbeat CPU 0 instructions: 650000004 cycles: 231201227 heartbeat IPC: 1.65773 cumulative IPC: 1.53642 (Simulation time: 0 hr 44 min 57 sec) 
Heartbeat CPU 0 instructions: 660000002 cycles: 237193323 heartbeat IPC: 1.66886 cumulative IPC: 1.54408 (Simulation time: 0 hr 45 min 29 sec) 
Heartbeat CPU 0 instructions: 670000001 cycles: 243467776 heartbeat IPC: 1.59376 cumulative IPC: 1.54692 (Simulation time: 0 hr 46 min 3 sec) 
Heartbeat CPU 0 instructions: 680000002 cycles: 249433440 heartbeat IPC: 1.67626 cumulative IPC: 1.55358 (Simulation time: 0 hr 46 min 31 sec) 
Heartbeat CPU 0 instructions: 690000001 cycles: 255385298 heartbeat IPC: 1.68015 cumulative IPC: 1.55976 (Simulation time: 0 hr 47 min 20 sec) 
Heartbeat CPU 0 instructions: 700000001 cycles: 261332125 heartbeat IPC: 1.68157 cumulative IPC: 1.56543 (Simulation time: 0 hr 48 min 8 sec) 
Heartbeat CPU 0 instructions: 710000004 cycles: 267281335 heartbeat IPC: 1.6809 cumulative IPC: 1.57057 (Simulation time: 0 hr 48 min 57 sec) 
Heartbeat CPU 0 instructions: 720000003 cycles: 273258157 heartbeat IPC: 1.67313 cumulative IPC: 1.57496 (Simulation time: 0 hr 49 min 48 sec) 
Heartbeat CPU 0 instructions: 730000002 cycles: 280427739 heartbeat IPC: 1.39478 cumulative IPC: 1.56616 (Simulation time: 0 hr 51 min 33 sec) 
Heartbeat CPU 0 instructions: 740000001 cycles: 286475412 heartbeat IPC: 1.65353 cumulative IPC: 1.56962 (Simulation time: 0 hr 52 min 28 sec) 
Heartbeat CPU 0 instructions: 750000002 cycles: 292407867 heartbeat IPC: 1.68564 cumulative IPC: 1.57395 (Simulation time: 0 hr 53 min 16 sec) 
Heartbeat CPU 0 instructions: 760000003 cycles: 298353514 heartbeat IPC: 1.6819 cumulative IPC: 1.57785 (Simulation time: 0 hr 53 min 46 sec) 
Heartbeat CPU 0 instructions: 770000000 cycles: 304295161 heartbeat IPC: 1.68303 cumulative IPC: 1.58151 (Simulation time: 0 hr 54 min 17 sec) 
Heartbeat CPU 0 instructions: 780000002 cycles: 310246963 heartbeat IPC: 1.68016 cumulative IPC: 1.58483 (Simulation time: 0 hr 54 min 58 sec) 
Heartbeat CPU 0 instructions: 790000001 cycles: 316254336 heartbeat IPC: 1.66462 cumulative IPC: 1.58745 (Simulation time: 0 hr 55 min 31 sec) 
Heartbeat CPU 0 instructions: 800000002 cycles: 322334076 heartbeat IPC: 1.64481 cumulative IPC: 1.5893 (Simulation time: 0 hr 56 min 13 sec) 
Heartbeat CPU 0 instructions: 810000001 cycles: 328618616 heartbeat IPC: 1.59121 cumulative IPC: 1.58936 (Simulation time: 0 hr 57 min 3 sec) 
Heartbeat CPU 0 instructions: 820000001 cycles: 334959637 heartbeat IPC: 1.57703 cumulative IPC: 1.58897 (Simulation time: 0 hr 57 min 50 sec) 
Heartbeat CPU 0 instructions: 830000000 cycles: 341055996 heartbeat IPC: 1.64032 cumulative IPC: 1.59048 (Simulation time: 0 hr 58 min 39 sec) 
Heartbeat CPU 0 instructions: 840000003 cycles: 347165341 heartbeat IPC: 1.63684 cumulative IPC: 1.59181 (Simulation time: 0 hr 59 min 10 sec) 
Heartbeat CPU 0 instructions: 850000001 cycles: 353266475 heartbeat IPC: 1.63904 cumulative IPC: 1.59312 (Simulation time: 0 hr 59 min 41 sec) 
Heartbeat CPU 0 instructions: 860000001 cycles: 359364826 heartbeat IPC: 1.63979 cumulative IPC: 1.59438 (Simulation time: 1 hr 0 min 13 sec) 
Heartbeat CPU 0 instructions: 870000000 cycles: 365462418 heartbeat IPC: 1.63999 cumulative IPC: 1.59558 (Simulation time: 1 hr 0 min 53 sec) 
Heartbeat CPU 0 instructions: 880000001 cycles: 371560889 heartbeat IPC: 1.63976 cumulative IPC: 1.59671 (Simulation time: 1 hr 1 min 21 sec) 
Heartbeat CPU 0 instructions: 890000001 cycles: 377665620 heartbeat IPC: 1.63807 cumulative IPC: 1.59775 (Simulation time: 1 hr 1 min 49 sec) 
Heartbeat CPU 0 instructions: 900000001 cycles: 383766402 heartbeat IPC: 1.63913 cumulative IPC: 1.59876 (Simulation time: 1 hr 2 min 31 sec) 
Heartbeat CPU 0 instructions: 910000003 cycles: 389865880 heartbeat IPC: 1.63948 cumulative IPC: 1.59973 (Simulation time: 1 hr 3 min 12 sec) 
Heartbeat CPU 0 instructions: 920000002 cycles: 395962601 heartbeat IPC: 1.64023 cumulative IPC: 1.60067 (Simulation time: 1 hr 3 min 45 sec) 
Heartbeat CPU 0 instructions: 930000003 cycles: 402449402 heartbeat IPC: 1.54159 cumulative IPC: 1.59924 (Simulation time: 1 hr 4 min 13 sec) 
Heartbeat CPU 0 instructions: 940000001 cycles: 408525826 heartbeat IPC: 1.6457 cumulative IPC: 1.60027 (Simulation time: 1 hr 4 min 41 sec) 
Heartbeat CPU 0 instructions: 950000003 cycles: 414677460 heartbeat IPC: 1.62558 cumulative IPC: 1.60082 (Simulation time: 1 hr 5 min 31 sec) 
Heartbeat CPU 0 instructions: 960000004 cycles: 420832995 heartbeat IPC: 1.62455 cumulative IPC: 1.60133 (Simulation time: 1 hr 6 min 20 sec) 
Heartbeat CPU 0 instructions: 970000000 cycles: 426781987 heartbeat IPC: 1.68096 cumulative IPC: 1.60295 (Simulation time: 1 hr 6 min 56 sec) 
Heartbeat CPU 0 instructions: 980000004 cycles: 432726603 heartbeat IPC: 1.6822 cumulative IPC: 1.60452 (Simulation time: 1 hr 7 min 24 sec) 
Heartbeat CPU 0 instructions: 990000000 cycles: 438668247 heartbeat IPC: 1.68304 cumulative IPC: 1.60605 (Simulation time: 1 hr 7 min 59 sec) 
Heartbeat CPU 0 instructions: 1000000001 cycles: 444608983 heartbeat IPC: 1.68329 cumulative IPC: 1.60752 (Simulation time: 1 hr 8 min 39 sec) 
Heartbeat CPU 0 instructions: 1010000000 cycles: 450921144 heartbeat IPC: 1.58424 cumulative IPC: 1.60706 (Simulation time: 1 hr 9 min 32 sec) 
Heartbeat CPU 0 instructions: 1020000000 cycles: 457729540 heartbeat IPC: 1.46877 cumulative IPC: 1.60416 (Simulation time: 1 hr 10 min 52 sec) 
Heartbeat CPU 0 instructions: 1030000003 cycles: 463531167 heartbeat IPC: 1.72365 cumulative IPC: 1.60626 (Simulation time: 1 hr 11 min 22 sec) 
Heartbeat CPU 0 instructions: 1040000004 cycles: 469322720 heartbeat IPC: 1.72665 cumulative IPC: 1.60834 (Simulation time: 1 hr 11 min 55 sec) 
Heartbeat CPU 0 instructions: 1050000001 cycles: 475121790 heartbeat IPC: 1.72441 cumulative IPC: 1.61031 (Simulation time: 1 hr 12 min 39 sec) 
Heartbeat CPU 0 instructions: 1060000004 cycles: 481072744 heartbeat IPC: 1.6804 cumulative IPC: 1.61151 (Simulation time: 1 hr 13 min 22 sec) 
Heartbeat CPU 0 instructions: 1070000000 cycles: 487172678 heartbeat IPC: 1.63936 cumulative IPC: 1.61199 (Simulation time: 1 hr 14 min 9 sec) 
Heartbeat CPU 0 instructions: 1080000001 cycles: 493537730 heartbeat IPC: 1.57108 cumulative IPC: 1.61126 (Simulation time: 1 hr 14 min 56 sec) 
Heartbeat CPU 0 instructions: 1090000000 cycles: 500057281 heartbeat IPC: 1.53385 cumulative IPC: 1.60989 (Simulation time: 1 hr 15 min 37 sec) 
Heartbeat CPU 0 instructions: 1100000002 cycles: 506353504 heartbeat IPC: 1.58825 cumulative IPC: 1.60952 (Simulation time: 1 hr 16 min 8 sec) 
Heartbeat CPU 0 instructions: 1110000002 cycles: 512485439 heartbeat IPC: 1.63081 cumulative IPC: 1.60987 (Simulation time: 1 hr 16 min 53 sec) 
Heartbeat CPU 0 instructions: 1120000000 cycles: 518533526 heartbeat IPC: 1.65342 cumulative IPC: 1.61055 (Simulation time: 1 hr 17 min 35 sec) 
Heartbeat CPU 0 instructions: 1130000000 cycles: 524976606 heartbeat IPC: 1.55205 cumulative IPC: 1.60959 (Simulation time: 1 hr 18 min 18 sec) 
Heartbeat CPU 0 instructions: 1140000002 cycles: 531086352 heartbeat IPC: 1.63673 cumulative IPC: 1.61 (Simulation time: 1 hr 18 min 59 sec) 
Heartbeat CPU 0 instructions: 1150000003 cycles: 537181910 heartbeat IPC: 1.64054 cumulative IPC: 1.61047 (Simulation time: 1 hr 19 min 48 sec) 
Heartbeat CPU 0 instructions: 1160000001 cycles: 543404142 heartbeat IPC: 1.60714 cumulative IPC: 1.61041 (Simulation time: 1 hr 20 min 38 sec) 
Heartbeat CPU 0 instructions: 1170000002 cycles: 549500219 heartbeat IPC: 1.6404 cumulative IPC: 1.61085 (Simulation time: 1 hr 21 min 24 sec) 
Heartbeat CPU 0 instructions: 1180000001 cycles: 555724972 heartbeat IPC: 1.60649 cumulative IPC: 1.61079 (Simulation time: 1 hr 22 min 13 sec) 
Heartbeat CPU 0 instructions: 1190000000 cycles: 561820584 heartbeat IPC: 1.64052 cumulative IPC: 1.61121 (Simulation time: 1 hr 23 min 3 sec) 
Heartbeat CPU 0 instructions: 1200000000 cycles: 568043681 heartbeat IPC: 1.60692 cumulative IPC: 1.61115 (Simulation time: 1 hr 23 min 52 sec) 
Heartbeat CPU 0 instructions: 1210000000 cycles: 574121443 heartbeat IPC: 1.64534 cumulative IPC: 1.61162 (Simulation time: 1 hr 24 min 42 sec) 
Heartbeat CPU 0 instructions: 1220000004 cycles: 580219742 heartbeat IPC: 1.6398 cumulative IPC: 1.61201 (Simulation time: 1 hr 25 min 31 sec) 
Heartbeat CPU 0 instructions: 1230000000 cycles: 586443283 heartbeat IPC: 1.6068 cumulative IPC: 1.61194 (Simulation time: 1 hr 26 min 17 sec) 
Heartbeat CPU 0 instructions: 1240000000 cycles: 592541655 heartbeat IPC: 1.63978 cumulative IPC: 1.61231 (Simulation time: 1 hr 26 min 47 sec) 
Heartbeat CPU 0 instructions: 1250000001 cycles: 598973591 heartbeat IPC: 1.55474 cumulative IPC: 1.61151 (Simulation time: 1 hr 27 min 28 sec) 
Heartbeat CPU 0 instructions: 1260000001 cycles: 605045021 heartbeat IPC: 1.64706 cumulative IPC: 1.61197 (Simulation time: 1 hr 28 min 17 sec) 
Heartbeat CPU 0 instructions: 1270000001 cycles: 611117696 heartbeat IPC: 1.64672 cumulative IPC: 1.61241 (Simulation time: 1 hr 29 min 6 sec) 
Heartbeat CPU 0 instructions: 1280000001 cycles: 617502789 heartbeat IPC: 1.56615 cumulative IPC: 1.6118 (Simulation time: 1 hr 29 min 55 sec) 
Heartbeat CPU 0 instructions: 1290000000 cycles: 623705696 heartbeat IPC: 1.61215 cumulative IPC: 1.6118 (Simulation time: 1 hr 30 min 35 sec) 
Heartbeat CPU 0 instructions: 1300000001 cycles: 630050102 heartbeat IPC: 1.57619 cumulative IPC: 1.61135 (Simulation time: 1 hr 31 min 4 sec) 
Heartbeat CPU 0 instructions: 1310000000 cycles: 636040934 heartbeat IPC: 1.66922 cumulative IPC: 1.61204 (Simulation time: 1 hr 31 min 31 sec) 
Heartbeat CPU 0 instructions: 1320000002 cycles: 642016664 heartbeat IPC: 1.67344 cumulative IPC: 1.61276 (Simulation time: 1 hr 31 min 59 sec) 
Heartbeat CPU 0 instructions: 1330000002 cycles: 647819564 heartbeat IPC: 1.72328 cumulative IPC: 1.61401 (Simulation time: 1 hr 32 min 26 sec) 
Heartbeat CPU 0 instructions: 1340000001 cycles: 653608104 heartbeat IPC: 1.72755 cumulative IPC: 1.61527 (Simulation time: 1 hr 33 min 13 sec) 
Heartbeat CPU 0 instructions: 1350000004 cycles: 659409755 heartbeat IPC: 1.72365 cumulative IPC: 1.61647 (Simulation time: 1 hr 34 min 1 sec) 
Heartbeat CPU 0 instructions: 1360000000 cycles: 665851228 heartbeat IPC: 1.55244 cumulative IPC: 1.61569 (Simulation time: 1 hr 35 min 2 sec) 
Heartbeat CPU 0 instructions: 1370000000 cycles: 672504361 heartbeat IPC: 1.50305 cumulative IPC: 1.6143 (Simulation time: 1 hr 35 min 57 sec) 
Heartbeat CPU 0 instructions: 1380000001 cycles: 678451467 heartbeat IPC: 1.68149 cumulative IPC: 1.61504 (Simulation time: 1 hr 36 min 30 sec) 
Heartbeat CPU 0 instructions: 1390000003 cycles: 684397024 heartbeat IPC: 1.68193 cumulative IPC: 1.61576 (Simulation time: 1 hr 37 min 15 sec) 
Heartbeat CPU 0 instructions: 1400000000 cycles: 690350002 heartbeat IPC: 1.67983 cumulative IPC: 1.61644 (Simulation time: 1 hr 38 min 4 sec) 
Heartbeat CPU 0 instructions: 1410000001 cycles: 696298127 heartbeat IPC: 1.6812 cumulative IPC: 1.61713 (Simulation time: 1 hr 38 min 51 sec) 
Heartbeat CPU 0 instructions: 1420000001 cycles: 702246397 heartbeat IPC: 1.68116 cumulative IPC: 1.6178 (Simulation time: 1 hr 39 min 39 sec) 
Heartbeat CPU 0 instructions: 1430000003 cycles: 708192321 heartbeat IPC: 1.68182 cumulative IPC: 1.61846 (Simulation time: 1 hr 40 min 27 sec) 
Heartbeat CPU 0 instructions: 1440000001 cycles: 714129926 heartbeat IPC: 1.68418 cumulative IPC: 1.61913 (Simulation time: 1 hr 41 min 15 sec) 
Heartbeat CPU 0 instructions: 1450000000 cycles: 720386224 heartbeat IPC: 1.59839 cumulative IPC: 1.61891 (Simulation time: 1 hr 42 min 4 sec) 
Heartbeat CPU 0 instructions: 1460000004 cycles: 726646685 heartbeat IPC: 1.59733 cumulative IPC: 1.61868 (Simulation time: 1 hr 42 min 50 sec) 
Heartbeat CPU 0 instructions: 1470000000 cycles: 732934124 heartbeat IPC: 1.59047 cumulative IPC: 1.61839 (Simulation time: 1 hr 43 min 27 sec) 
Heartbeat CPU 0 instructions: 1480000001 cycles: 739601179 heartbeat IPC: 1.49991 cumulative IPC: 1.61708 (Simulation time: 1 hr 43 min 56 sec) 
Heartbeat CPU 0 instructions: 1490000003 cycles: 745681414 heartbeat IPC: 1.64467 cumulative IPC: 1.61736 (Simulation time: 1 hr 44 min 38 sec) 
Heartbeat CPU 0 instructions: 1500000003 cycles: 751964328 heartbeat IPC: 1.59162 cumulative IPC: 1.6171 (Simulation time: 1 hr 45 min 5 sec) 
Heartbeat CPU 0 instructions: 1510000003 cycles: 758088033 heartbeat IPC: 1.633 cumulative IPC: 1.61725 (Simulation time: 1 hr 45 min 33 sec) 
Heartbeat CPU 0 instructions: 1520000001 cycles: 764263525 heartbeat IPC: 1.6193 cumulative IPC: 1.61727 (Simulation time: 1 hr 46 min 0 sec) 
Heartbeat CPU 0 instructions: 1530000001 cycles: 770326883 heartbeat IPC: 1.64925 cumulative IPC: 1.61758 (Simulation time: 1 hr 46 min 27 sec) 
Heartbeat CPU 0 instructions: 1540000002 cycles: 776467708 heartbeat IPC: 1.62845 cumulative IPC: 1.61768 (Simulation time: 1 hr 46 min 54 sec) 
Heartbeat CPU 0 instructions: 1550000001 cycles: 782547055 heartbeat IPC: 1.64491 cumulative IPC: 1.61794 (Simulation time: 1 hr 47 min 21 sec) 
Heartbeat CPU 0 instructions: 1560000001 cycles: 788668535 heartbeat IPC: 1.63359 cumulative IPC: 1.61808 (Simulation time: 1 hr 47 min 48 sec) 
Heartbeat CPU 0 instructions: 1570000004 cycles: 794766395 heartbeat IPC: 1.63992 cumulative IPC: 1.61828 (Simulation time: 1 hr 48 min 15 sec) 
Heartbeat CPU 0 instructions: 1580000000 cycles: 800867722 heartbeat IPC: 1.63899 cumulative IPC: 1.61847 (Simulation time: 1 hr 48 min 42 sec) 
Heartbeat CPU 0 instructions: 1590000001 cycles: 806983888 heartbeat IPC: 1.63501 cumulative IPC: 1.61862 (Simulation time: 1 hr 49 min 9 sec) 
Heartbeat CPU 0 instructions: 1600000000 cycles: 813065386 heartbeat IPC: 1.64433 cumulative IPC: 1.61885 (Simulation time: 1 hr 49 min 36 sec) 
Heartbeat CPU 0 instructions: 1610000001 cycles: 819189213 heartbeat IPC: 1.63297 cumulative IPC: 1.61898 (Simulation time: 1 hr 50 min 4 sec) 
Heartbeat CPU 0 instructions: 1620000001 cycles: 825264354 heartbeat IPC: 1.64605 cumulative IPC: 1.61922 (Simulation time: 1 hr 50 min 32 sec) 
Heartbeat CPU 0 instructions: 1630000001 cycles: 831408758 heartbeat IPC: 1.6275 cumulative IPC: 1.61929 (Simulation time: 1 hr 50 min 59 sec) 
Heartbeat CPU 0 instructions: 1640000000 cycles: 837464275 heartbeat IPC: 1.65139 cumulative IPC: 1.61957 (Simulation time: 1 hr 51 min 27 sec) 
Heartbeat CPU 0 instructions: 1650000004 cycles: 843617443 heartbeat IPC: 1.62518 cumulative IPC: 1.61961 (Simulation time: 1 hr 51 min 55 sec) 
Heartbeat CPU 0 instructions: 1660000001 cycles: 849699774 heartbeat IPC: 1.64411 cumulative IPC: 1.61982 (Simulation time: 1 hr 52 min 23 sec) 
Heartbeat CPU 0 instructions: 1670000003 cycles: 855799792 heartbeat IPC: 1.63934 cumulative IPC: 1.61999 (Simulation time: 1 hr 52 min 50 sec) 
Heartbeat CPU 0 instructions: 1680000001 cycles: 861869915 heartbeat IPC: 1.64741 cumulative IPC: 1.62022 (Simulation time: 1 hr 53 min 18 sec) 
Heartbeat CPU 0 instructions: 1690000000 cycles: 868785095 heartbeat IPC: 1.44609 cumulative IPC: 1.61858 (Simulation time: 1 hr 53 min 47 sec) 
Heartbeat CPU 0 instructions: 1700000003 cycles: 875131937 heartbeat IPC: 1.57559 cumulative IPC: 1.61821 (Simulation time: 1 hr 54 min 14 sec) 
Heartbeat CPU 0 instructions: 1710000001 cycles: 881165354 heartbeat IPC: 1.65744 cumulative IPC: 1.61853 (Simulation time: 1 hr 54 min 42 sec) 
Heartbeat CPU 0 instructions: 1720000001 cycles: 887122354 heartbeat IPC: 1.6787 cumulative IPC: 1.619 (Simulation time: 1 hr 55 min 9 sec) 
Heartbeat CPU 0 instructions: 1730000002 cycles: 893066208 heartbeat IPC: 1.68241 cumulative IPC: 1.6195 (Simulation time: 1 hr 55 min 40 sec) 
Heartbeat CPU 0 instructions: 1740000003 cycles: 899006532 heartbeat IPC: 1.68341 cumulative IPC: 1.61999 (Simulation time: 1 hr 56 min 29 sec) 
Heartbeat CPU 0 instructions: 1750000004 cycles: 904961220 heartbeat IPC: 1.67935 cumulative IPC: 1.62045 (Simulation time: 1 hr 57 min 1 sec) 
Heartbeat CPU 0 instructions: 1760000003 cycles: 910905248 heartbeat IPC: 1.68236 cumulative IPC: 1.62093 (Simulation time: 1 hr 57 min 33 sec) 
Heartbeat CPU 0 instructions: 1770000003 cycles: 916863043 heartbeat IPC: 1.67847 cumulative IPC: 1.62136 (Simulation time: 1 hr 58 min 0 sec) 
Heartbeat CPU 0 instructions: 1780000003 cycles: 922811562 heartbeat IPC: 1.68109 cumulative IPC: 1.62181 (Simulation time: 1 hr 58 min 27 sec) 
Heartbeat CPU 0 instructions: 1790000002 cycles: 930030255 heartbeat IPC: 1.38529 cumulative IPC: 1.61967 (Simulation time: 1 hr 59 min 49 sec) 
Heartbeat CPU 0 instructions: 1800000004 cycles: 936011898 heartbeat IPC: 1.67178 cumulative IPC: 1.62006 (Simulation time: 2 hr 0 min 37 sec) 
Heartbeat CPU 0 instructions: 1810000001 cycles: 942303696 heartbeat IPC: 1.58937 cumulative IPC: 1.61982 (Simulation time: 2 hr 1 min 17 sec) 
Heartbeat CPU 0 instructions: 1820000002 cycles: 948867614 heartbeat IPC: 1.52348 cumulative IPC: 1.61904 (Simulation time: 2 hr 2 min 7 sec) 
Heartbeat CPU 0 instructions: 1830000003 cycles: 955120118 heartbeat IPC: 1.59936 cumulative IPC: 1.61889 (Simulation time: 2 hr 2 min 58 sec) 
Heartbeat CPU 0 instructions: 1840000000 cycles: 962200537 heartbeat IPC: 1.41235 cumulative IPC: 1.61713 (Simulation time: 2 hr 3 min 49 sec) 
Heartbeat CPU 0 instructions: 1850000004 cycles: 968962914 heartbeat IPC: 1.47877 cumulative IPC: 1.61601 (Simulation time: 2 hr 4 min 40 sec) 
Heartbeat CPU 0 instructions: 1860000001 cycles: 975679345 heartbeat IPC: 1.48889 cumulative IPC: 1.615 (Simulation time: 2 hr 5 min 31 sec) 
Heartbeat CPU 0 instructions: 1870000000 cycles: 982273200 heartbeat IPC: 1.51656 cumulative IPC: 1.61423 (Simulation time: 2 hr 6 min 23 sec) 
Heartbeat CPU 0 instructions: 1880000001 cycles: 988992957 heartbeat IPC: 1.48815 cumulative IPC: 1.61324 (Simulation time: 2 hr 7 min 13 sec) 
Heartbeat CPU 0 instructions: 1890000000 cycles: 995734920 heartbeat IPC: 1.48325 cumulative IPC: 1.61222 (Simulation time: 2 hr 8 min 4 sec) 
Heartbeat CPU 0 instructions: 1900000004 cycles: 1002327151 heartbeat IPC: 1.51694 cumulative IPC: 1.6115 (Simulation time: 2 hr 8 min 55 sec) 
Heartbeat CPU 0 instructions: 1910000002 cycles: 1008864074 heartbeat IPC: 1.52977 cumulative IPC: 1.61089 (Simulation time: 2 hr 9 min 45 sec) 
Heartbeat CPU 0 instructions: 1920000000 cycles: 1015601358 heartbeat IPC: 1.48428 cumulative IPC: 1.60992 (Simulation time: 2 hr 10 min 36 sec) 
Heartbeat CPU 0 instructions: 1930000000 cycles: 1022011511 heartbeat IPC: 1.56003 cumulative IPC: 1.60956 (Simulation time: 2 hr 11 min 25 sec) 
Heartbeat CPU 0 instructions: 1940000002 cycles: 1028319080 heartbeat IPC: 1.5854 cumulative IPC: 1.60939 (Simulation time: 2 hr 12 min 10 sec) 
Heartbeat CPU 0 instructions: 1950000001 cycles: 1034292177 heartbeat IPC: 1.67417 cumulative IPC: 1.60982 (Simulation time: 2 hr 12 min 38 sec) 
Heartbeat CPU 0 instructions: 1960000003 cycles: 1041230135 heartbeat IPC: 1.44135 cumulative IPC: 1.60853 (Simulation time: 2 hr 13 min 30 sec) 
Heartbeat CPU 0 instructions: 1970000000 cycles: 1047470596 heartbeat IPC: 1.60245 cumulative IPC: 1.60849 (Simulation time: 2 hr 14 min 5 sec) 
Heartbeat CPU 0 instructions: 1980000001 cycles: 1053484699 heartbeat IPC: 1.66276 cumulative IPC: 1.60885 (Simulation time: 2 hr 14 min 32 sec) 
Heartbeat CPU 0 instructions: 1990000003 cycles: 1059526669 heartbeat IPC: 1.65509 cumulative IPC: 1.60915 (Simulation time: 2 hr 15 min 0 sec) 
*** Reached end of trace: traces/603.bwaves_s-1080B.champsimtrace.xz
Heartbeat CPU 0 instructions: 2000000000 cycles: 1066129943 heartbeat IPC: 1.5144 cumulative IPC: 1.60848 (Simulation time: 2 hr 15 min 28 sec) 
Finished CPU 0 instructions: 1500000004 cycles: 932558107 cumulative IPC: 1.60848 (Simulation time: 2 hr 15 min 28 sec) 

ChampSim completed all CPUs

Region of Interest Statistics

CPU 0 cumulative IPC: 1.60848 instructions: 1500000004 cycles: 932558107
cpu0_DTLB TOTAL     ACCESS:  234507697  HIT:  234499842  MISS:       7855
cpu0_DTLB LOAD      ACCESS:  198244008  HIT:  198243140  MISS:        868
cpu0_DTLB RFO       ACCESS:   36263689  HIT:   36256702  MISS:       6987
cpu0_DTLB PREFETCH  ACCESS:          0  HIT:          0  MISS:          0
cpu0_DTLB WRITEBACK ACCESS:          0  HIT:          0  MISS:          0
cpu0_DTLB TRANSLATION ACCESS:          0  HIT:          0  MISS:          0
cpu0_DTLB PREFETCH  REQUESTED:          0  ISSUED:          0  USEFUL:          0  USELESS:          0
cpu0_DTLB AVERAGE MISS LATENCY: 211.113 cycles
cpu0_ITLB TOTAL     ACCESS:  174129546  HIT:  174129546  MISS:          0
cpu0_ITLB LOAD      ACCESS:  174129546  HIT:  174129546  MISS:          0
cpu0_ITLB RFO       ACCESS:          0  HIT:          0  MISS:          0
cpu0_ITLB PREFETCH  ACCESS:          0  HIT:          0  MISS:          0
cpu0_ITLB WRITEBACK ACCESS:          0  HIT:          0  MISS:          0
cpu0_ITLB TRANSLATION ACCESS:          0  HIT:          0  MISS:          0
cpu0_ITLB PREFETCH  REQUESTED:          0  ISSUED:          0  USEFUL:          0  USELESS:          0
cpu0_ITLB AVERAGE MISS LATENCY: -nan cycles
cpu0_L1I TOTAL     ACCESS:   17954498  HIT:   17954498  MISS:          0
cpu0_L1I LOAD      ACCESS:   17954498  HIT:   17954498  MISS:          0
cpu0_L1I RFO       ACCESS:          0  HIT:          0  MISS:          0
cpu0_L1I PREFETCH  ACCESS:          0  HIT:          0  MISS:          0
cpu0_L1I WRITEBACK ACCESS:          0  HIT:          0  MISS:          0
cpu0_L1I TRANSLATION ACCESS:          0  HIT:          0  MISS:          0
cpu0_L1I PREFETCH  REQUESTED:          0  ISSUED:          0  USEFUL:          0  USELESS:          0
cpu0_L1I AVERAGE MISS LATENCY: -nan cycles
cpu0_STLB TOTAL     ACCESS:       7855  HIT:        254  MISS:       7601
cpu0_STLB LOAD      ACCESS:        868  HIT:        162  MISS:        706
cpu0_STLB RFO       ACCESS:       6987  HIT:         92  MISS:       6895
cpu0_STLB PREFETCH  ACCESS:          0  HIT:          0  MISS:          0
cpu0_STLB WRITEBACK ACCESS:          0  HIT:          0  MISS:          0
cpu0_STLB TRANSLATION ACCESS:          0  HIT:          0  MISS:          0
cpu0_STLB PREFETCH  REQUESTED:          0  ISSUED:          0  USEFUL:          0  USELESS:          0
cpu0_STLB AVERAGE MISS LATENCY: 208.866 cycles
cpu0_L1D TOTAL     ACCESS:  255189018  HIT:  254697343  MISS:     491675
cpu0_L1D LOAD      ACCESS:  193403232  HIT:  193354821  MISS:      48411
cpu0_L1D RFO       ACCESS:   61778188  HIT:   61335197  MISS:     442991
cpu0_L1D PREFETCH  ACCESS:          0  HIT:          0  MISS:          0
cpu0_L1D WRITEBACK ACCESS:          0  HIT:          0  MISS:          0
cpu0_L1D TRANSLATION ACCESS:       7598  HIT:       7325  MISS:        273
cpu0_L1D PREFETCH  REQUESTED:          0  ISSUED:          0  USEFUL:          0  USELESS:          0
cpu0_L1D AVERAGE MISS LATENCY: 309.175 cycles
cpu0_L2C TOTAL     ACCESS:     934008  HIT:     447666  MISS:     486342
cpu0_L2C LOAD      ACCESS:      48411  HIT:       3992  MISS:      44419
cpu0_L2C RFO       ACCESS:     442991  HIT:       1553  MISS:     441438
cpu0_L2C PREFETCH  ACCESS:          0  HIT:          0  MISS:          0
cpu0_L2C WRITEBACK ACCESS:     442333  HIT:     441877  MISS:        456
cpu0_L2C TRANSLATION ACCESS:        273  HIT:        244  MISS:         29
cpu0_L2C PREFETCH  REQUESTED:          0  ISSUED:          0  USEFUL:          0  USELESS:          0
cpu0_L2C AVERAGE MISS LATENCY: 301.442 cycles
LLC TOTAL     ACCESS:     927123  HIT:     440953  MISS:     486170
LLC LOAD      ACCESS:      44419  HIT:         93  MISS:      44326
LLC RFO       ACCESS:     441438  HIT:          2  MISS:     441436
LLC PREFETCH  ACCESS:          0  HIT:          0  MISS:          0
LLC WRITEBACK ACCESS:     441237  HIT:     440848  MISS:        389
LLC TRANSLATION ACCESS:         29  HIT:         10  MISS:         19
LLC PREFETCH  REQUESTED:          0  ISSUED:          0  USEFUL:          0  USELESS:          0
LLC AVERAGE MISS LATENCY: 280.561 cycles
~~~~~~~~~~Reuse Distance Profiler output~~~~~~~~~~
0	55596176	24419104
1	69201024	62183728
2	52682656	46406016
3	42186848	39547696
4	21823504	20006656
5	11624752	9860976
6	8519728	7039648
7	9874752	8181312
8	8933984	7318864
9	7408256	5806576
10	5960208	4952976
11	5567344	3988688
12	4526048	3204000
13	3826672	2484224
14	3187440	2261008
15	2422656	1914240
16	2104128	1722464
17	1957424	1478720
18	2093792	1675280
19	1583696	1341152
20	1592128	1270624
21	1626592	1253040
22	1143008	928112
23	1060896	883152
24	1055744	845232
25	1245392	881712
26	1006560	745200
27	918880	696816
28	919824	675840
29	811248	667904
30	566592	419488
31	746848	568912
32	661088	518240
33	686864	521872
34	584880	504448
35	472752	398864
36	420000	310336
37	494560	337248
38	377984	240400
39	351136	271728
40	440512	350560
41	408080	331072
42	352944	249632
43	374016	256304
44	296592	230128
45	297328	224144
46	294160	229168
47	275120	200768
48	281696	202624
49	252560	199648
50	180352	139152
51	271136	180688
52	203344	152144
53	195616	139072
54	188544	131776
55	201984	118736
56	235552	166112
57	144688	77152
58	311872	250576
59	161312	105776
60	126832	70784
61	169888	69952
62	132112	82208
63	136704	50272
64	208928	145456
66	242080	138976
68	300832	163616
70	233440	149584
72	415248	302640
74	288544	227584
76	304624	226080
78	282672	212176
80	242784	136080
82	290416	213904
84	210176	130864
86	225792	180496
88	213248	150736
90	227200	106336
92	237600	123120
94	210048	117584
96	268160	161360
98	196480	132352
100	217456	141120
102	182496	117920
104	169232	120384
106	118544	93728
108	97408	74320
110	154768	100160
112	138752	80464
114	89888	54400
116	109568	92640
118	103344	90096
120	191280	145728
122	98176	65408
124	64464	50448
126	50720	39632
128	194368	131024
132	162896	70592
136	283040	191408
140	363504	286624
144	144400	80304
148	84992	48528
152	109216	50752
156	115152	61152
160	118992	37072
164	217536	147280
168	249120	166608
172	276976	194064
176	166480	115280
180	74416	41376
184	84320	51184
188	57792	28704
192	94768	47664
196	142576	109040
200	200480	176048
204	87200	61440
208	123488	51120
212	83856	28368
216	116976	84752
220	258192	227232
224	79360	54480
228	77488	35568
232	78480	46032
236	120368	88208
240	93792	68528
244	94080	64944
248	133312	80912
252	94672	69440
256	218368	63888
264	133184	90416
272	378592	62224
280	255440	87616
288	198160	50432
296	220928	38240
304	224464	71984
312	94896	14080
320	413648	345664
328	158048	78000
336	230176	30592
344	97488	44128
352	125056	66032
360	296496	235328
368	247216	215872
376	89952	76544
384	76304	34256
392	58720	18528
400	84256	57600
408	141648	85584
416	66928	53136
424	66992	45184
432	89024	33312
440	112224	36656
448	114992	40448
456	96800	53344
464	131312	76816
472	137216	42816
480	119232	82672
488	155424	77552
496	90976	53456
504	66208	28464
512	125792	27744
528	82832	54608
544	67312	41152
560	63632	42912
576	135072	100928
592	80112	54512
608	135824	80352
624	82688	41744
640	61696	34432
656	74448	45072
672	136496	15664
688	47696	27552
704	57440	45088
720	94432	56048
736	101648	73024
752	120368	72704
768	60128	37504
784	65344	6064
800	26848	4432
816	44448	13440
832	64496	31920
848	80752	15520
864	20000	1584
880	98416	50432
896	55728	14720
912	61616	54592
928	61776	45600
944	67200	24800
960	55552	51024
976	37968	29456
992	23056	16224
1008	57392	39312
1024	64656	43984
1056	42512	29008
1088	46896	30176
1120	37984	16896
1152	39008	22384
1184	85552	32912
1216	67296	45744
1248	54880	18096
1280	55664	26960
1312	73824	63488
1344	82528	54368
1376	68464	44176
1408	24256	10832
1440	21696	3280
1472	23920	6752
1504	13728	3168
1536	18352	5008
1568	13440	3056
1600	14096	4768
1632	12912	2128
1664	15456	6112
1696	22512	7584
1728	18528	5728
1760	24784	9808
1792	15360	4912
1824	17728	8880
1856	9968	4224
1888	18272	11968
1920	8128	2864
1952	12976	8640
1984	9520	5200
2016	9056	4656
2048	34608	26240
2112	24864	11088
2176	33536	20704
2240	38144	17376
2304	37536	17632
2368	41552	28048
2432	39456	22880
2496	39216	17232
2560	25552	10528
2624	20384	6928
2688	24640	15744
2752	23248	6736
2816	12448	3360
2880	12320	3408
2944	9648	4336
3008	8560	2880
3072	10592	2048
3136	7728	1424
3200	2928	496
3264	3056	1168
3328	4720	80
3392	10496	8640
3456	12560	10096
3520	15728	7424
3584	10544	9680
3648	8128	6736
3712	1616	320
3776	2240	1840
3840	8608	6880
3904	5120	96
3968	16752	4320
4032	42144	22064
4096	41696	13680
4224	8112	3648
4352	7600	1280
4480	6192	3232
4608	4976	720
4736	13904	3232
4864	9536	2848
4992	16480	11120
5120	20752	3408
5248	13552	2752
5376	10896	1808
5504	9088	784
5632	13840	9936
5760	4512	2016
5888	3424	752
6016	3600	1712
6144	3168	1744
6272	4496	0
6400	1280	16
6528	2864	16
6656	3616	64
6784	2240	48
6912	5888	160
7040	1472	80
7168	2400	448
7296	3152	848
7424	7568	640
7552	24720	11728
7680	67936	48592
7808	9920	5104
7936	10432	2624
8064	14800	5872
8192	33104	18688
8448	12512	5888
8704	22704	11440
8960	8960	2736
9216	27392	17216
9472	7376	3728
9728	928	272
9984	304	96
10240	1024	368
10496	512	0
10752	5168	4656
11008	20080	18032
11264	5360	3680
11520	8768	6736
11776	29712	27776
12032	18816	15296
12288	17136	9376
12544	8832	4672
12800	8736	4672
13056	11072	3936
13312	6960	752
13568	9376	464
13824	12320	1232
14080	8736	512
14336	5744	768
14592	5184	448
14848	6016	384
15104	5504	1360
15360	7328	3408
15616	12784	8736
15872	12576	4608
16128	18288	10272
16384	12304	6816
16896	16512	6688
17408	24352	13216
17920	11520	2688
18432	13232	1904
18944	17696	2704
19456	39600	11136
19968	35008	11360
20480	36512	14960
20992	35440	15216
21504	42768	14400
22016	39264	18960
22528	46496	24560
23040	26224	11312
23552	27008	13152
24064	20832	11648
24576	11120	6800
25088	3616	1504
25600	3856	1696
26112	5312	3840
26624	7328	3664
27136	5328	2160
27648	14208	7168
28160	8256	2992
28672	9728	3888
29184	12992	8480
29696	12976	6016
30208	14960	3120
30720	14528	6864
31232	11568	7184
31744	11744	7232
32256	11680	2672
32768	11472	7472
33792	6896	4688
34816	3728	704
35840	4800	752
36864	3872	1024
37888	3856	912
38912	3424	496
39936	2736	1024
40960	832	416
41984	672	144
43008	880	256
44032	656	96
45056	480	176
46080	480	96
47104	704	16
48128	2496	736
49152	2816	64
50176	896	64
51200	688	16
52224	1616	480
53248	1408	128
54272	192	32
55296	80	0
56320	64	0
57344	112	32
58368	272	16
59392	80	16
60416	272	96
61440	464	272
62464	272	80
63488	560	112
64512	288	80
65536	416	272
67584	400	32
69632	96	32
71680	32	0
73728	48	0
75776	112	64
77824	80	16
79872	16	0
81920	16	16
83968	16	0
86016	32	0
88064	3680	3632
90112	832	768
92160	3424	2224
94208	2016	1616
96256	3088	2048
98304	288	16
100352	240	0
102400	112	0
104448	0	0
106496	64	32
108544	64	48
110592	1920	96
112640	1728	1168
114688	2800	2304
116736	1296	736
118784	25680	18288
120832	6992	4112
122880	9296	6432
124928	11312	7792
126976	12352	8880
129024	10768	7776
131072	6800	3728
135168	608	336
139264	640	224
143360	80	32
147456	64	32
151552	48	32
155648	2960	1920
159744	15136	10144
163840	2048	1088
167936	2192	1136
172032	9792	6960
176128	1584	576
180224	112	96
184320	224	32
188416	16	16
192512	112	48
196608	64	48
200704	144	64
204800	272	16
208896	80	16
212992	64	16
217088	128	32
221184	48	0
225280	0	0
229376	192	48
233472	48	16
237568	304	0
241664	384	256
245760	208	96
249856	368	48
253952	480	240
258048	160	16
262144	112	16
270336	112	0
278528	160	48
286720	0	0
294912	16	0
303104	32	0
311296	0	0
319488	528	208
327680	48	16
335872	80	48
344064	288	80
352256	48	32
360448	64	0
368640	80	64
376832	32	0
385024	192	64
393216	112	48
401408	112	32
409600	384	272
417792	320	64
425984	80	32
434176	80	16
442368	16	16
450560	48	32
458752	32	32
466944	16	16
475136	128	112
483328	64	16
491520	64	48
499712	80	80
507904	128	16
516096	16	0
524288	16	16
540672	16	16
557056	32	32
573440	16	0
589824	16	16
606208	64	48
622592	32	32
638976	64	32
655360	0	0
671744	32	32
688128	0	0
704512	0	0
720896	32	32
737280	0	0
753664	0	0
770048	0	0
786432	16	16
802816	16	16
819200	176	176
835584	16	16
851968	32	32
868352	256	224
884736	0	0
901120	16	0
917504	0	0
933888	0	0
950272	0	0
966656	16	0
983040	16	16
999424	80	80
1015808	0	0
1032192	0	0
1048576	48	48
1081344	48	48
1114112	288	288
1146880	208	208
1179648	0	0
1212416	0	0
1245184	0	0
1277952	16	16
1310720	32	32
1343488	224	224
1376256	48	48
1409024	0	0
1441792	0	0
1474560	0	0
1507328	0	0
1540096	64	64
1572864	32	32
1605632	16	16
1638400	16	16
1671168	144	0
1703936	240	80
1736704	64	16
1769472	48	32
1802240	160	96
1835008	16	16
1867776	16	16
1900544	32	32
1933312	96	64
1966080	16	0
1998848	16	0
2031616	80	64
2064384	32	16
2097152	0	0
2162688	16	0
2228224	0	0
2293760	0	0
2359296	0	0
2424832	0	0
2490368	0	0
2555904	0	0
2621440	0	0
2686976	0	0
2752512	0	0
2818048	0	0
2883584	0	0
2949120	0	0
3014656	0	0
3080192	0	0
3145728	0	0
3211264	0	0
3276800	0	0
3342336	0	0
3407872	0	0
3473408	0	0
3538944	0	0
3604480	0	0
3670016	0	0
3735552	0	0
3801088	0	0
3866624	0	0
3932160	0	0
3997696	0	0
4063232	0	0
4128768	0	0
4194304	0	0
4325376	0	0
4456448	0	0
4587520	0	0
4718592	0	0
4849664	0	0
4980736	0	0
5111808	0	0
5242880	0	0
5373952	0	0
5505024	0	0
5636096	16	16
5767168	32	32
5898240	0	0
6029312	0	0
6160384	32	32
6291456	16	16
6422528	0	0
6553600	0	0
6684672	0	0
6815744	32	32
6946816	0	0
7077888	0	0
7208960	0	0
7340032	0	0
7471104	32	32
7602176	0	0
7733248	0	0
7864320	0	0
7995392	0	0
8126464	0	0
8257536	0	0
8388608	0	0
8650752	16	16
8912896	0	0
9175040	0	0
9437184	0	0
9699328	0	0
9961472	48	48
10223616	0	0
10485760	0	0
10747904	0	0
11010048	0	0
11272192	0	0
11534336	0	0
11796480	0	0
12058624	0	0
12320768	0	0
12582912	0	0
12845056	0	0
13107200	0	0
13369344	0	0
13631488	0	0
13893632	0	0
14155776	0	0
14417920	0	0
14680064	0	0
14942208	0	0
15204352	0	0
15466496	0	0
15728640	0	0
15990784	0	0
16252928	0	0
16515072	0	0
16777216	0	0
17301504	0	0
17825792	0	0
18350080	0	0
18874368	0	0
19398656	0	0
19922944	0	0
20447232	0	0
20971520	0	0
21495808	0	0
22020096	0	0
22544384	0	0
23068672	0	0
23592960	0	0
24117248	0	0
24641536	0	0
25165824	0	0
25690112	0	0
26214400	0	0
26738688	0	0
27262976	0	0
27787264	0	0
28311552	0	0
28835840	0	0
29360128	0	0
29884416	0	0
30408704	0	0
30932992	0	0
31457280	0	0
31981568	0	0
32505856	0	0
33030144	0	0
33554432	0	0
34603008	0	0
35651584	0	0
36700160	0	0
37748736	0	0
38797312	0	0
39845888	0	0
40894464	0	0
41943040	0	0
42991616	0	0
44040192	0	0
45088768	0	0
46137344	0	0
47185920	0	0
48234496	0	0
49283072	0	0
50331648	0	0
51380224	0	0
52428800	0	0
53477376	0	0
54525952	0	0
55574528	0	0
56623104	0	0
57671680	0	0
58720256	0	0
59768832	0	0
60817408	0	0
61865984	0	0
62914560	0	0
63963136	0	0
65011712	0	0
66060288	0	0
67108864	0	0
69206016	0	0
71303168	0	0
73400320	0	0
75497472	0	0
77594624	0	0
79691776	0	0
81788928	0	0
83886080	0	0
85983232	0	0
88080384	0	0
90177536	0	0
92274688	0	0
94371840	0	0
96468992	0	0
98566144	0	0
100663296	0	0
102760448	0	0
104857600	0	0
106954752	0	0
109051904	0	0
111149056	0	0
113246208	0	0
115343360	0	0
117440512	0	0
119537664	0	0
121634816	0	0
123731968	0	0
125829120	0	0
127926272	0	0
130023424	0	0
132120576	0	0
134217728	0	0
138412032	0	0
142606336	0	0
146800640	0	0
150994944	0	0
155189248	0	0
159383552	0	0
163577856	0	0
167772160	0	0
171966464	0	0
176160768	0	0
180355072	0	0
184549376	0	0
188743680	0	0
192937984	0	0
197132288	0	0
201326592	0	0
205520896	0	0
209715200	0	0
213909504	0	0
218103808	0	0
222298112	0	0
226492416	0	0
230686720	0	0
234881024	0	0
239075328	0	0
243269632	0	0
247463936	0	0
251658240	0	0
255852544	0	0
260046848	0	0
264241152	0	0
268435456	0	0
276824064	0	0
285212672	0	0
293601280	0	0
301989888	0	0
310378496	0	0
318767104	0	0
327155712	0	0
335544320	0	0
343932928	0	0
352321536	0	0
360710144	0	0
369098752	0	0
377487360	0	0
385875968	0	0
394264576	0	0
402653184	0	0
411041792	0	0
419430400	0	0
427819008	0	0
436207616	0	0
444596224	0	0
452984832	0	0
461373440	0	0
469762048	0	0
478150656	0	0
486539264	0	0
494927872	0	0
503316480	0	0
511705088	0	0
520093696	0	0
528482304	0	0
536870912	0	0
553648128	0	0
570425344	0	0
587202560	0	0
603979776	0	0
620756992	0	0
637534208	0	0
654311424	0	0
671088640	0	0
687865856	0	0
704643072	0	0
721420288	0	0
738197504	0	0
754974720	0	0
771751936	0	0
788529152	0	0
805306368	0	0
822083584	0	0
838860800	0	0
855638016	0	0
872415232	0	0
889192448	0	0
905969664	0	0
922746880	0	0
939524096	0	0
956301312	0	0
973078528	0	0
989855744	0	0
1006632960	0	0
1023410176	0	0
1040187392	0	0
1056964608	0	0
1073741824	0	0
1107296256	0	0
1140850688	0	0
1174405120	0	0
1207959552	0	0
1241513984	0	0
1275068416	0	0
1308622848	0	0
1342177280	0	0
1375731712	0	0
1409286144	0	0
1442840576	0	0
1476395008	0	0
1509949440	0	0
1543503872	0	0
1577058304	0	0
1610612736	0	0
1644167168	0	0
1677721600	0	0
1711276032	0	0
1744830464	0	0
1778384896	0	0
1811939328	0	0
1845493760	0	0
1879048192	0	0
1912602624	0	0
1946157056	0	0
1979711488	0	0
2013265920	0	0
2046820352	0	0
2080374784	0	0
2113929216	0	0
2147483648	0	0
2214592512	0	0
2281701376	0	0
2348810240	0	0
2415919104	0	0
2483027968	0	0
2550136832	0	0
2617245696	0	0
2684354560	0	0
2751463424	0	0
2818572288	0	0
2885681152	0	0
2952790016	0	0
3019898880	0	0
3087007744	0	0
3154116608	0	0
3221225472	0	0
3288334336	0	0
3355443200	0	0
3422552064	0	0
3489660928	0	0
3556769792	0	0
3623878656	0	0
3690987520	0	0
3758096384	0	0
3825205248	0	0
3892314112	0	0
3959422976	0	0
4026531840	0	0
4093640704	0	0
4160749568	0	0
4227858432	0	0
~~~~~~~~~~Reuse Distance Profiler output end~~~~~~~~~~

DRAM Statistics
 CHANNEL 0
 RQ ROW_BUFFER_HIT:       1182  ROW_BUFFER_MISS:     484599
 DBUS AVG_CONGESTED_CYCLE:    3.92397
 WQ ROW_BUFFER_HIT:      42924  ROW_BUFFER_MISS:     398396  FULL:          0


CPU 0 Branch Prediction Accuracy: 80.734% MPKI: 28.1217 Average ROB Occupancy at Mispredict: 45.5846
Branch type MPKI
BRANCH_DIRECT_JUMP: 0
BRANCH_INDIRECT: 0
BRANCH_CONDITIONAL: 28.1217
BRANCH_DIRECT_CALL: 0
BRANCH_INDIRECT_CALL: 0
BRANCH_RETURN: 0

