
*** ChampSim Multicore Out-of-Order Simulator ***

Warmup Instructions: 500000000
Simulation Instructions: 1500000000
Number of CPUs: 1
Off-chip DRAM Size: 4 GiB Channels: 1 Width: 64-bit Data Rate: 3200 MT/s

VirtualMemory physical capacity: 8588881920 num_ppages: 2096895
VirtualMemory page size: 4096 log2_page_size: 12

CPU 0 runs traces/605.mcf_s-472B.champsimtrace.xz
CPU 0 Bimodal branch predictor
Basic BTB sets: 1024 ways: 8 indirect buffer size: 4096 RAS size: 64
Initializing LRU.
Initializing LRU.
Initializing LRU.
Initializing LRU.
Initializing rdLRU.
Initializing LRU.
Initializing LRU.
Heartbeat CPU 0 instructions: 10000000 cycles: 3251520 heartbeat IPC: 3.07548 cumulative IPC: 3.07548 (Simulation time: 0 hr 1 min 16 sec) 
Heartbeat CPU 0 instructions: 20000001 cycles: 6781239 heartbeat IPC: 2.83309 cumulative IPC: 2.94931 (Simulation time: 0 hr 2 min 17 sec) 
Heartbeat CPU 0 instructions: 30000004 cycles: 10468929 heartbeat IPC: 2.71173 cumulative IPC: 2.86562 (Simulation time: 0 hr 3 min 20 sec) 
Heartbeat CPU 0 instructions: 40000002 cycles: 13749778 heartbeat IPC: 3.04799 cumulative IPC: 2.90914 (Simulation time: 0 hr 4 min 18 sec) 
Heartbeat CPU 0 instructions: 50000000 cycles: 17104956 heartbeat IPC: 2.98047 cumulative IPC: 2.92313 (Simulation time: 0 hr 5 min 17 sec) 
Heartbeat CPU 0 instructions: 60000001 cycles: 20483292 heartbeat IPC: 2.96004 cumulative IPC: 2.92922 (Simulation time: 0 hr 6 min 17 sec) 
Heartbeat CPU 0 instructions: 70000004 cycles: 23793325 heartbeat IPC: 3.02112 cumulative IPC: 2.942 (Simulation time: 0 hr 7 min 15 sec) 
Heartbeat CPU 0 instructions: 80000001 cycles: 27304504 heartbeat IPC: 2.84805 cumulative IPC: 2.92992 (Simulation time: 0 hr 8 min 16 sec) 
Heartbeat CPU 0 instructions: 90000001 cycles: 30622782 heartbeat IPC: 3.01361 cumulative IPC: 2.93899 (Simulation time: 0 hr 9 min 14 sec) 
Heartbeat CPU 0 instructions: 100000002 cycles: 34085314 heartbeat IPC: 2.88806 cumulative IPC: 2.93382 (Simulation time: 0 hr 10 min 16 sec) 
Heartbeat CPU 0 instructions: 110000001 cycles: 37353659 heartbeat IPC: 3.05965 cumulative IPC: 2.94483 (Simulation time: 0 hr 11 min 15 sec) 
Heartbeat CPU 0 instructions: 120000001 cycles: 40715033 heartbeat IPC: 2.97497 cumulative IPC: 2.94731 (Simulation time: 0 hr 12 min 13 sec) 
Heartbeat CPU 0 instructions: 130000000 cycles: 44138532 heartbeat IPC: 2.92099 cumulative IPC: 2.94527 (Simulation time: 0 hr 13 min 13 sec) 
Heartbeat CPU 0 instructions: 140000000 cycles: 47577705 heartbeat IPC: 2.90768 cumulative IPC: 2.94255 (Simulation time: 0 hr 14 min 14 sec) 
Heartbeat CPU 0 instructions: 150000003 cycles: 51027402 heartbeat IPC: 2.89881 cumulative IPC: 2.9396 (Simulation time: 0 hr 15 min 15 sec) 
Heartbeat CPU 0 instructions: 160000004 cycles: 54373907 heartbeat IPC: 2.98819 cumulative IPC: 2.94259 (Simulation time: 0 hr 16 min 15 sec) 
Heartbeat CPU 0 instructions: 170000001 cycles: 57670007 heartbeat IPC: 3.03389 cumulative IPC: 2.94781 (Simulation time: 0 hr 17 min 15 sec) 
Heartbeat CPU 0 instructions: 180000000 cycles: 60958224 heartbeat IPC: 3.04116 cumulative IPC: 2.95284 (Simulation time: 0 hr 18 min 14 sec) 
Heartbeat CPU 0 instructions: 190000000 cycles: 64531758 heartbeat IPC: 2.79835 cumulative IPC: 2.94429 (Simulation time: 0 hr 19 min 17 sec) 
Heartbeat CPU 0 instructions: 200000003 cycles: 67913249 heartbeat IPC: 2.95728 cumulative IPC: 2.94493 (Simulation time: 0 hr 20 min 18 sec) 
Heartbeat CPU 0 instructions: 210000003 cycles: 71221235 heartbeat IPC: 3.02299 cumulative IPC: 2.94856 (Simulation time: 0 hr 21 min 19 sec) 
Heartbeat CPU 0 instructions: 220000000 cycles: 74645450 heartbeat IPC: 2.92038 cumulative IPC: 2.94727 (Simulation time: 0 hr 22 min 22 sec) 
Heartbeat CPU 0 instructions: 230000002 cycles: 78044787 heartbeat IPC: 2.94175 cumulative IPC: 2.94703 (Simulation time: 0 hr 23 min 25 sec) 
Heartbeat CPU 0 instructions: 240000004 cycles: 81471225 heartbeat IPC: 2.91848 cumulative IPC: 2.94583 (Simulation time: 0 hr 24 min 23 sec) 
Heartbeat CPU 0 instructions: 250000000 cycles: 84804044 heartbeat IPC: 3.00046 cumulative IPC: 2.94797 (Simulation time: 0 hr 25 min 27 sec) 
Heartbeat CPU 0 instructions: 260000003 cycles: 88134697 heartbeat IPC: 3.00242 cumulative IPC: 2.95003 (Simulation time: 0 hr 26 min 53 sec) 
Heartbeat CPU 0 instructions: 270000002 cycles: 91713580 heartbeat IPC: 2.79417 cumulative IPC: 2.94395 (Simulation time: 0 hr 27 min 51 sec) 
Heartbeat CPU 0 instructions: 280000001 cycles: 95438804 heartbeat IPC: 2.6844 cumulative IPC: 2.93382 (Simulation time: 0 hr 28 min 43 sec) 
Heartbeat CPU 0 instructions: 290000002 cycles: 98944061 heartbeat IPC: 2.85286 cumulative IPC: 2.93095 (Simulation time: 0 hr 29 min 38 sec) 
Heartbeat CPU 0 instructions: 300000000 cycles: 102301971 heartbeat IPC: 2.97804 cumulative IPC: 2.93249 (Simulation time: 0 hr 30 min 38 sec) 
Heartbeat CPU 0 instructions: 310000000 cycles: 105812439 heartbeat IPC: 2.84862 cumulative IPC: 2.92971 (Simulation time: 0 hr 31 min 39 sec) 
Heartbeat CPU 0 instructions: 320000003 cycles: 109411861 heartbeat IPC: 2.77822 cumulative IPC: 2.92473 (Simulation time: 0 hr 33 min 11 sec) 
Heartbeat CPU 0 instructions: 330000001 cycles: 112825454 heartbeat IPC: 2.92946 cumulative IPC: 2.92487 (Simulation time: 0 hr 34 min 41 sec) 
Heartbeat CPU 0 instructions: 340000000 cycles: 116056384 heartbeat IPC: 3.09508 cumulative IPC: 2.92961 (Simulation time: 0 hr 35 min 38 sec) 
Heartbeat CPU 0 instructions: 350000003 cycles: 119692345 heartbeat IPC: 2.75031 cumulative IPC: 2.92416 (Simulation time: 0 hr 36 min 41 sec) 
Heartbeat CPU 0 instructions: 360000001 cycles: 123284767 heartbeat IPC: 2.78364 cumulative IPC: 2.92007 (Simulation time: 0 hr 37 min 43 sec) 
Heartbeat CPU 0 instructions: 370000000 cycles: 126689271 heartbeat IPC: 2.93729 cumulative IPC: 2.92053 (Simulation time: 0 hr 38 min 43 sec) 
Heartbeat CPU 0 instructions: 380000003 cycles: 130085540 heartbeat IPC: 2.94441 cumulative IPC: 2.92115 (Simulation time: 0 hr 39 min 43 sec) 
Heartbeat CPU 0 instructions: 390000004 cycles: 133551547 heartbeat IPC: 2.88516 cumulative IPC: 2.92022 (Simulation time: 0 hr 40 min 43 sec) 
Heartbeat CPU 0 instructions: 400000001 cycles: 137033335 heartbeat IPC: 2.87209 cumulative IPC: 2.919 (Simulation time: 0 hr 41 min 43 sec) 
Heartbeat CPU 0 instructions: 410000003 cycles: 140346400 heartbeat IPC: 3.01835 cumulative IPC: 2.92134 (Simulation time: 0 hr 42 min 41 sec) 
Heartbeat CPU 0 instructions: 420000002 cycles: 143652076 heartbeat IPC: 3.0251 cumulative IPC: 2.92373 (Simulation time: 0 hr 43 min 40 sec) 
Heartbeat CPU 0 instructions: 430000002 cycles: 147150324 heartbeat IPC: 2.85857 cumulative IPC: 2.92218 (Simulation time: 0 hr 44 min 41 sec) 
Heartbeat CPU 0 instructions: 440000003 cycles: 150615400 heartbeat IPC: 2.88594 cumulative IPC: 2.92135 (Simulation time: 0 hr 45 min 41 sec) 
Heartbeat CPU 0 instructions: 450000001 cycles: 154001463 heartbeat IPC: 2.95328 cumulative IPC: 2.92205 (Simulation time: 0 hr 46 min 41 sec) 
Heartbeat CPU 0 instructions: 460000000 cycles: 157224442 heartbeat IPC: 3.10272 cumulative IPC: 2.92575 (Simulation time: 0 hr 47 min 38 sec) 
Heartbeat CPU 0 instructions: 470000004 cycles: 160531329 heartbeat IPC: 3.02399 cumulative IPC: 2.92778 (Simulation time: 0 hr 48 min 35 sec) 
Heartbeat CPU 0 instructions: 480000001 cycles: 164148964 heartbeat IPC: 2.76424 cumulative IPC: 2.92417 (Simulation time: 0 hr 49 min 36 sec) 
Heartbeat CPU 0 instructions: 490000004 cycles: 167598739 heartbeat IPC: 2.89874 cumulative IPC: 2.92365 (Simulation time: 0 hr 50 min 35 sec) 
Heartbeat CPU 0 instructions: 500000002 cycles: 170973155 heartbeat IPC: 2.96348 cumulative IPC: 2.92444 (Simulation time: 0 hr 51 min 33 sec) 

Warmup complete CPU 0 instructions: 500000002 cycles: 170973155 (Simulation time: 0 hr 51 min 33 sec) 

Heartbeat CPU 0 instructions: 510000001 cycles: 213984036 heartbeat IPC: 0.232499 cumulative IPC: 0.232499 (Simulation time: 0 hr 54 min 26 sec) 
Heartbeat CPU 0 instructions: 520000000 cycles: 264557463 heartbeat IPC: 0.197732 cumulative IPC: 0.213711 (Simulation time: 0 hr 58 min 56 sec) 
Heartbeat CPU 0 instructions: 530000000 cycles: 302736306 heartbeat IPC: 0.261925 cumulative IPC: 0.227681 (Simulation time: 1 hr 3 min 37 sec) 
Heartbeat CPU 0 instructions: 540000000 cycles: 334395378 heartbeat IPC: 0.315865 cumulative IPC: 0.244765 (Simulation time: 1 hr 7 min 32 sec) 
Heartbeat CPU 0 instructions: 550000000 cycles: 382951308 heartbeat IPC: 0.205948 cumulative IPC: 0.235873 (Simulation time: 1 hr 12 min 10 sec) 
Heartbeat CPU 0 instructions: 560000001 cycles: 424841545 heartbeat IPC: 0.238719 cumulative IPC: 0.236343 (Simulation time: 1 hr 16 min 57 sec) 
Heartbeat CPU 0 instructions: 570000000 cycles: 461464286 heartbeat IPC: 0.273054 cumulative IPC: 0.240971 (Simulation time: 1 hr 20 min 28 sec) 
Heartbeat CPU 0 instructions: 580000001 cycles: 511479841 heartbeat IPC: 0.199938 cumulative IPC: 0.234944 (Simulation time: 1 hr 26 min 50 sec) 
Heartbeat CPU 0 instructions: 590000002 cycles: 554167973 heartbeat IPC: 0.234257 cumulative IPC: 0.234867 (Simulation time: 1 hr 30 min 44 sec) 
Heartbeat CPU 0 instructions: 600000000 cycles: 597752996 heartbeat IPC: 0.229437 cumulative IPC: 0.234313 (Simulation time: 1 hr 35 min 11 sec) 
Heartbeat CPU 0 instructions: 610000004 cycles: 637407349 heartbeat IPC: 0.252179 cumulative IPC: 0.235832 (Simulation time: 1 hr 38 min 8 sec) 
Heartbeat CPU 0 instructions: 620000003 cycles: 680070093 heartbeat IPC: 0.234397 cumulative IPC: 0.235712 (Simulation time: 1 hr 43 min 28 sec) 
Heartbeat CPU 0 instructions: 630000000 cycles: 721870415 heartbeat IPC: 0.239233 cumulative IPC: 0.235979 (Simulation time: 1 hr 47 min 37 sec) 
Heartbeat CPU 0 instructions: 640000000 cycles: 772928659 heartbeat IPC: 0.195855 cumulative IPC: 0.232575 (Simulation time: 1 hr 53 min 21 sec) 
Heartbeat CPU 0 instructions: 650000003 cycles: 808636560 heartbeat IPC: 0.28005 cumulative IPC: 0.235234 (Simulation time: 1 hr 57 min 12 sec) 
Heartbeat CPU 0 instructions: 660000003 cycles: 844892893 heartbeat IPC: 0.275814 cumulative IPC: 0.237417 (Simulation time: 1 hr 59 min 39 sec) 
Heartbeat CPU 0 instructions: 670000000 cycles: 888572688 heartbeat IPC: 0.228939 cumulative IPC: 0.236901 (Simulation time: 2 hr 2 min 37 sec) 
Heartbeat CPU 0 instructions: 680000001 cycles: 921739489 heartbeat IPC: 0.301506 cumulative IPC: 0.239755 (Simulation time: 2 hr 5 min 41 sec) 
Heartbeat CPU 0 instructions: 690000000 cycles: 966675747 heartbeat IPC: 0.222537 cumulative IPC: 0.238783 (Simulation time: 2 hr 10 min 3 sec) 
Heartbeat CPU 0 instructions: 700000001 cycles: 1010108413 heartbeat IPC: 0.230241 cumulative IPC: 0.238341 (Simulation time: 2 hr 13 min 13 sec) 
Heartbeat CPU 0 instructions: 710000001 cycles: 1051364284 heartbeat IPC: 0.24239 cumulative IPC: 0.23853 (Simulation time: 2 hr 16 min 11 sec) 
Heartbeat CPU 0 instructions: 720000000 cycles: 1084432941 heartbeat IPC: 0.302401 cumulative IPC: 0.240843 (Simulation time: 2 hr 18 min 33 sec) 
Heartbeat CPU 0 instructions: 730000000 cycles: 1122126463 heartbeat IPC: 0.265298 cumulative IPC: 0.241812 (Simulation time: 2 hr 21 min 14 sec) 
Heartbeat CPU 0 instructions: 740000000 cycles: 1159280209 heartbeat IPC: 0.269152 cumulative IPC: 0.24284 (Simulation time: 2 hr 23 min 56 sec) 
Heartbeat CPU 0 instructions: 750000001 cycles: 1202870935 heartbeat IPC: 0.229407 cumulative IPC: 0.242272 (Simulation time: 2 hr 27 min 6 sec) 
Heartbeat CPU 0 instructions: 760000000 cycles: 1240678489 heartbeat IPC: 0.264497 cumulative IPC: 0.243058 (Simulation time: 2 hr 29 min 43 sec) 
Heartbeat CPU 0 instructions: 770000000 cycles: 1273697052 heartbeat IPC: 0.30286 cumulative IPC: 0.244848 (Simulation time: 2 hr 31 min 59 sec) 
Heartbeat CPU 0 instructions: 780000002 cycles: 1306844691 heartbeat IPC: 0.301681 cumulative IPC: 0.246507 (Simulation time: 2 hr 34 min 16 sec) 
Heartbeat CPU 0 instructions: 790000000 cycles: 1339241038 heartbeat IPC: 0.308677 cumulative IPC: 0.248231 (Simulation time: 2 hr 36 min 37 sec) 
Heartbeat CPU 0 instructions: 800000000 cycles: 1375249674 heartbeat IPC: 0.277711 cumulative IPC: 0.249112 (Simulation time: 2 hr 39 min 8 sec) 
Heartbeat CPU 0 instructions: 810000002 cycles: 1424438827 heartbeat IPC: 0.203297 cumulative IPC: 0.247314 (Simulation time: 2 hr 42 min 39 sec) 
Heartbeat CPU 0 instructions: 820000001 cycles: 1457959611 heartbeat IPC: 0.298322 cumulative IPC: 0.248643 (Simulation time: 2 hr 45 min 46 sec) 
Heartbeat CPU 0 instructions: 830000004 cycles: 1490186343 heartbeat IPC: 0.310301 cumulative IPC: 0.250149 (Simulation time: 2 hr 48 min 21 sec) 
Heartbeat CPU 0 instructions: 840000002 cycles: 1526994623 heartbeat IPC: 0.271678 cumulative IPC: 0.250733 (Simulation time: 2 hr 50 min 50 sec) 
Heartbeat CPU 0 instructions: 850000000 cycles: 1567709791 heartbeat IPC: 0.245609 cumulative IPC: 0.250584 (Simulation time: 2 hr 53 min 35 sec) 
Heartbeat CPU 0 instructions: 860000003 cycles: 1606497476 heartbeat IPC: 0.257814 cumulative IPC: 0.250779 (Simulation time: 2 hr 56 min 22 sec) 
Heartbeat CPU 0 instructions: 870000000 cycles: 1638280407 heartbeat IPC: 0.314634 cumulative IPC: 0.252163 (Simulation time: 2 hr 58 min 33 sec) 
Heartbeat CPU 0 instructions: 880000002 cycles: 1684554004 heartbeat IPC: 0.216106 cumulative IPC: 0.25106 (Simulation time: 3 hr 1 min 43 sec) 
Heartbeat CPU 0 instructions: 890000003 cycles: 1718298548 heartbeat IPC: 0.296344 cumulative IPC: 0.252048 (Simulation time: 3 hr 4 min 8 sec) 
Heartbeat CPU 0 instructions: 900000001 cycles: 1756891928 heartbeat IPC: 0.259112 cumulative IPC: 0.25222 (Simulation time: 3 hr 6 min 54 sec) 
Heartbeat CPU 0 instructions: 910000001 cycles: 1795111290 heartbeat IPC: 0.261647 cumulative IPC: 0.252442 (Simulation time: 3 hr 9 min 21 sec) 
Heartbeat CPU 0 instructions: 920000002 cycles: 1840560864 heartbeat IPC: 0.220024 cumulative IPC: 0.251559 (Simulation time: 3 hr 12 min 31 sec) 
Heartbeat CPU 0 instructions: 930000002 cycles: 1884634796 heartbeat IPC: 0.226891 cumulative IPC: 0.250925 (Simulation time: 3 hr 15 min 33 sec) 
Heartbeat CPU 0 instructions: 940000002 cycles: 1919156158 heartbeat IPC: 0.289676 cumulative IPC: 0.25169 (Simulation time: 3 hr 17 min 51 sec) 
Heartbeat CPU 0 instructions: 950000000 cycles: 1958097092 heartbeat IPC: 0.256799 cumulative IPC: 0.251801 (Simulation time: 3 hr 20 min 31 sec) 
Heartbeat CPU 0 instructions: 960000002 cycles: 2007133507 heartbeat IPC: 0.20393 cumulative IPC: 0.250523 (Simulation time: 3 hr 23 min 54 sec) 
Heartbeat CPU 0 instructions: 970000003 cycles: 2046648697 heartbeat IPC: 0.253067 cumulative IPC: 0.250576 (Simulation time: 3 hr 26 min 32 sec) 
Heartbeat CPU 0 instructions: 980000001 cycles: 2088407100 heartbeat IPC: 0.239473 cumulative IPC: 0.250335 (Simulation time: 3 hr 29 min 24 sec) 
Heartbeat CPU 0 instructions: 990000001 cycles: 2139508896 heartbeat IPC: 0.195688 cumulative IPC: 0.248916 (Simulation time: 3 hr 32 min 50 sec) 
Heartbeat CPU 0 instructions: 1000000000 cycles: 2177809507 heartbeat IPC: 0.261092 cumulative IPC: 0.249148 (Simulation time: 3 hr 35 min 22 sec) 
Heartbeat CPU 0 instructions: 1010000002 cycles: 2219275454 heartbeat IPC: 0.241162 cumulative IPC: 0.248987 (Simulation time: 3 hr 38 min 8 sec) 
Heartbeat CPU 0 instructions: 1020000003 cycles: 2268723781 heartbeat IPC: 0.202231 cumulative IPC: 0.247885 (Simulation time: 3 hr 41 min 30 sec) 
Heartbeat CPU 0 instructions: 1030000002 cycles: 2309627892 heartbeat IPC: 0.244474 cumulative IPC: 0.247819 (Simulation time: 3 hr 44 min 19 sec) 
Heartbeat CPU 0 instructions: 1040000002 cycles: 2350991561 heartbeat IPC: 0.241758 cumulative IPC: 0.247704 (Simulation time: 3 hr 47 min 9 sec) 
Heartbeat CPU 0 instructions: 1050000000 cycles: 2387602535 heartbeat IPC: 0.273142 cumulative IPC: 0.248124 (Simulation time: 3 hr 49 min 32 sec) 
Heartbeat CPU 0 instructions: 1060000001 cycles: 2426522623 heartbeat IPC: 0.256937 cumulative IPC: 0.248277 (Simulation time: 3 hr 52 min 6 sec) 
Heartbeat CPU 0 instructions: 1070000002 cycles: 2464423292 heartbeat IPC: 0.263848 cumulative IPC: 0.248534 (Simulation time: 3 hr 54 min 43 sec) 
Heartbeat CPU 0 instructions: 1080000000 cycles: 2502077705 heartbeat IPC: 0.265573 cumulative IPC: 0.248809 (Simulation time: 3 hr 57 min 12 sec) 
Heartbeat CPU 0 instructions: 1090000002 cycles: 2545840578 heartbeat IPC: 0.228504 cumulative IPC: 0.248435 (Simulation time: 4 hr 0 min 13 sec) 
Heartbeat CPU 0 instructions: 1100000000 cycles: 2581293098 heartbeat IPC: 0.282067 cumulative IPC: 0.24893 (Simulation time: 4 hr 2 min 35 sec) 
Heartbeat CPU 0 instructions: 1110000004 cycles: 2625004667 heartbeat IPC: 0.228772 cumulative IPC: 0.248571 (Simulation time: 4 hr 5 min 30 sec) 
Heartbeat CPU 0 instructions: 1120000001 cycles: 2671286036 heartbeat IPC: 0.21607 cumulative IPC: 0.247969 (Simulation time: 4 hr 8 min 40 sec) 
Heartbeat CPU 0 instructions: 1130000003 cycles: 2709636250 heartbeat IPC: 0.260755 cumulative IPC: 0.248162 (Simulation time: 4 hr 11 min 18 sec) 
Heartbeat CPU 0 instructions: 1140000000 cycles: 2743082193 heartbeat IPC: 0.29899 cumulative IPC: 0.248823 (Simulation time: 4 hr 13 min 34 sec) 
Heartbeat CPU 0 instructions: 1150000003 cycles: 2775683058 heartbeat IPC: 0.30674 cumulative IPC: 0.249548 (Simulation time: 4 hr 15 min 48 sec) 
Heartbeat CPU 0 instructions: 1160000002 cycles: 2810143517 heartbeat IPC: 0.290188 cumulative IPC: 0.250079 (Simulation time: 4 hr 18 min 1 sec) 
Heartbeat CPU 0 instructions: 1170000003 cycles: 2856883813 heartbeat IPC: 0.213948 cumulative IPC: 0.24945 (Simulation time: 4 hr 21 min 9 sec) 
Heartbeat CPU 0 instructions: 1180000002 cycles: 2899725997 heartbeat IPC: 0.233415 cumulative IPC: 0.249198 (Simulation time: 4 hr 24 min 12 sec) 
Heartbeat CPU 0 instructions: 1190000002 cycles: 2937626599 heartbeat IPC: 0.263848 cumulative IPC: 0.249399 (Simulation time: 4 hr 26 min 42 sec) 
Heartbeat CPU 0 instructions: 1200000003 cycles: 2979738188 heartbeat IPC: 0.237464 cumulative IPC: 0.24922 (Simulation time: 4 hr 29 min 35 sec) 
Heartbeat CPU 0 instructions: 1210000004 cycles: 3017034678 heartbeat IPC: 0.268122 cumulative IPC: 0.249468 (Simulation time: 4 hr 32 min 4 sec) 
Heartbeat CPU 0 instructions: 1220000000 cycles: 3060852718 heartbeat IPC: 0.228216 cumulative IPC: 0.249145 (Simulation time: 4 hr 35 min 0 sec) 
Heartbeat CPU 0 instructions: 1230000000 cycles: 3093798880 heartbeat IPC: 0.303525 cumulative IPC: 0.249758 (Simulation time: 4 hr 37 min 14 sec) 
Heartbeat CPU 0 instructions: 1240000001 cycles: 3129836546 heartbeat IPC: 0.277487 cumulative IPC: 0.250096 (Simulation time: 4 hr 39 min 42 sec) 
Heartbeat CPU 0 instructions: 1250000000 cycles: 3170373153 heartbeat IPC: 0.246691 cumulative IPC: 0.25005 (Simulation time: 4 hr 42 min 25 sec) 
Heartbeat CPU 0 instructions: 1260000000 cycles: 3204095750 heartbeat IPC: 0.296537 cumulative IPC: 0.250567 (Simulation time: 4 hr 44 min 36 sec) 
Heartbeat CPU 0 instructions: 1270000001 cycles: 3241308690 heartbeat IPC: 0.268724 cumulative IPC: 0.250787 (Simulation time: 4 hr 47 min 6 sec) 
Heartbeat CPU 0 instructions: 1280000000 cycles: 3283382142 heartbeat IPC: 0.23768 cumulative IPC: 0.25061 (Simulation time: 4 hr 49 min 58 sec) 
Heartbeat CPU 0 instructions: 1290000000 cycles: 3314281095 heartbeat IPC: 0.323636 cumulative IPC: 0.251328 (Simulation time: 4 hr 52 min 3 sec) 
Heartbeat CPU 0 instructions: 1300000001 cycles: 3349632246 heartbeat IPC: 0.282876 cumulative IPC: 0.251678 (Simulation time: 4 hr 54 min 29 sec) 
Heartbeat CPU 0 instructions: 1310000000 cycles: 3399655919 heartbeat IPC: 0.199905 cumulative IPC: 0.250876 (Simulation time: 4 hr 57 min 53 sec) 
Heartbeat CPU 0 instructions: 1320000002 cycles: 3440957076 heartbeat IPC: 0.242124 cumulative IPC: 0.250766 (Simulation time: 5 hr 0 min 41 sec) 
Heartbeat CPU 0 instructions: 1330000001 cycles: 3476248467 heartbeat IPC: 0.283355 cumulative IPC: 0.251114 (Simulation time: 5 hr 3 min 1 sec) 
Heartbeat CPU 0 instructions: 1340000001 cycles: 3510355734 heartbeat IPC: 0.293193 cumulative IPC: 0.251543 (Simulation time: 5 hr 5 min 19 sec) 
Heartbeat CPU 0 instructions: 1350000001 cycles: 3543783259 heartbeat IPC: 0.299155 cumulative IPC: 0.252015 (Simulation time: 5 hr 7 min 37 sec) 
Heartbeat CPU 0 instructions: 1360000000 cycles: 3587191821 heartbeat IPC: 0.230369 cumulative IPC: 0.25174 (Simulation time: 5 hr 10 min 35 sec) 
Heartbeat CPU 0 instructions: 1370000000 cycles: 3618528873 heartbeat IPC: 0.319111 cumulative IPC: 0.252353 (Simulation time: 5 hr 12 min 41 sec) 
Heartbeat CPU 0 instructions: 1380000001 cycles: 3660786370 heartbeat IPC: 0.236644 cumulative IPC: 0.252162 (Simulation time: 5 hr 15 min 29 sec) 
Heartbeat CPU 0 instructions: 1390000000 cycles: 3697191137 heartbeat IPC: 0.274689 cumulative IPC: 0.252395 (Simulation time: 5 hr 17 min 59 sec) 
Heartbeat CPU 0 instructions: 1400000002 cycles: 3746337191 heartbeat IPC: 0.203475 cumulative IPC: 0.251723 (Simulation time: 5 hr 21 min 17 sec) 
Heartbeat CPU 0 instructions: 1410000003 cycles: 3779978988 heartbeat IPC: 0.297249 cumulative IPC: 0.252147 (Simulation time: 5 hr 23 min 36 sec) 
Heartbeat CPU 0 instructions: 1420000001 cycles: 3816271967 heartbeat IPC: 0.275535 cumulative IPC: 0.25238 (Simulation time: 5 hr 26 min 3 sec) 
Heartbeat CPU 0 instructions: 1430000003 cycles: 3864270776 heartbeat IPC: 0.208339 cumulative IPC: 0.251807 (Simulation time: 5 hr 29 min 10 sec) 
Heartbeat CPU 0 instructions: 1440000003 cycles: 3915946318 heartbeat IPC: 0.193515 cumulative IPC: 0.251003 (Simulation time: 5 hr 32 min 45 sec) 
Heartbeat CPU 0 instructions: 1450000001 cycles: 3954425155 heartbeat IPC: 0.259883 cumulative IPC: 0.251093 (Simulation time: 5 hr 35 min 21 sec) 
Heartbeat CPU 0 instructions: 1460000000 cycles: 3985002775 heartbeat IPC: 0.327037 cumulative IPC: 0.251702 (Simulation time: 5 hr 37 min 24 sec) 
Heartbeat CPU 0 instructions: 1470000001 cycles: 4019995586 heartbeat IPC: 0.285773 cumulative IPC: 0.252012 (Simulation time: 5 hr 39 min 42 sec) 
Heartbeat CPU 0 instructions: 1480000002 cycles: 4065377346 heartbeat IPC: 0.220353 cumulative IPC: 0.251643 (Simulation time: 5 hr 42 min 45 sec) 
Heartbeat CPU 0 instructions: 1490000000 cycles: 4103127201 heartbeat IPC: 0.264902 cumulative IPC: 0.25177 (Simulation time: 5 hr 45 min 17 sec) 
Heartbeat CPU 0 instructions: 1500000000 cycles: 4141028974 heartbeat IPC: 0.26384 cumulative IPC: 0.251886 (Simulation time: 5 hr 47 min 48 sec) 
Heartbeat CPU 0 instructions: 1510000002 cycles: 4188503366 heartbeat IPC: 0.21064 cumulative IPC: 0.251398 (Simulation time: 5 hr 51 min 0 sec) 
Heartbeat CPU 0 instructions: 1520000002 cycles: 4224733300 heartbeat IPC: 0.276015 cumulative IPC: 0.251618 (Simulation time: 5 hr 53 min 24 sec) 
Heartbeat CPU 0 instructions: 1530000002 cycles: 4261356206 heartbeat IPC: 0.273053 cumulative IPC: 0.25181 (Simulation time: 5 hr 55 min 52 sec) 
Heartbeat CPU 0 instructions: 1540000000 cycles: 4297677979 heartbeat IPC: 0.275317 cumulative IPC: 0.252017 (Simulation time: 5 hr 58 min 15 sec) 
Heartbeat CPU 0 instructions: 1550000000 cycles: 4334824680 heartbeat IPC: 0.269203 cumulative IPC: 0.25217 (Simulation time: 6 hr 0 min 46 sec) 
Heartbeat CPU 0 instructions: 1560000002 cycles: 4371644229 heartbeat IPC: 0.271595 cumulative IPC: 0.252341 (Simulation time: 6 hr 3 min 16 sec) 
Heartbeat CPU 0 instructions: 1570000002 cycles: 4416616174 heartbeat IPC: 0.222361 cumulative IPC: 0.252023 (Simulation time: 6 hr 6 min 22 sec) 
Heartbeat CPU 0 instructions: 1580000001 cycles: 4453358098 heartbeat IPC: 0.272169 cumulative IPC: 0.252196 (Simulation time: 6 hr 8 min 52 sec) 
Heartbeat CPU 0 instructions: 1590000003 cycles: 4494542567 heartbeat IPC: 0.24281 cumulative IPC: 0.252107 (Simulation time: 6 hr 11 min 36 sec) 
Heartbeat CPU 0 instructions: 1600000001 cycles: 4527843168 heartbeat IPC: 0.300295 cumulative IPC: 0.252475 (Simulation time: 6 hr 13 min 49 sec) 
Heartbeat CPU 0 instructions: 1610000000 cycles: 4560592471 heartbeat IPC: 0.30535 cumulative IPC: 0.252869 (Simulation time: 6 hr 16 min 4 sec) 
Heartbeat CPU 0 instructions: 1620000001 cycles: 4603730576 heartbeat IPC: 0.231814 cumulative IPC: 0.252664 (Simulation time: 6 hr 19 min 1 sec) 
Heartbeat CPU 0 instructions: 1630000001 cycles: 4637732018 heartbeat IPC: 0.294105 cumulative IPC: 0.25298 (Simulation time: 6 hr 21 min 13 sec) 
Heartbeat CPU 0 instructions: 1640000003 cycles: 4676343485 heartbeat IPC: 0.25899 cumulative IPC: 0.253031 (Simulation time: 6 hr 23 min 46 sec) 
Heartbeat CPU 0 instructions: 1650000003 cycles: 4721866966 heartbeat IPC: 0.219667 cumulative IPC: 0.252698 (Simulation time: 6 hr 26 min 50 sec) 
Heartbeat CPU 0 instructions: 1660000000 cycles: 4752073194 heartbeat IPC: 0.331057 cumulative IPC: 0.253214 (Simulation time: 6 hr 28 min 52 sec) 
Heartbeat CPU 0 instructions: 1670000001 cycles: 4783892134 heartbeat IPC: 0.314278 cumulative IPC: 0.253635 (Simulation time: 6 hr 31 min 6 sec) 
Heartbeat CPU 0 instructions: 1680000002 cycles: 4829947944 heartbeat IPC: 0.217128 cumulative IPC: 0.253275 (Simulation time: 6 hr 34 min 10 sec) 
Heartbeat CPU 0 instructions: 1690000002 cycles: 4873840550 heartbeat IPC: 0.227829 cumulative IPC: 0.253037 (Simulation time: 6 hr 37 min 15 sec) 
Heartbeat CPU 0 instructions: 1700000000 cycles: 4905193697 heartbeat IPC: 0.318947 cumulative IPC: 0.253474 (Simulation time: 6 hr 39 min 21 sec) 
Heartbeat CPU 0 instructions: 1710000001 cycles: 4939546478 heartbeat IPC: 0.291097 cumulative IPC: 0.253745 (Simulation time: 6 hr 41 min 40 sec) 
Heartbeat CPU 0 instructions: 1720000000 cycles: 4976754925 heartbeat IPC: 0.268756 cumulative IPC: 0.253861 (Simulation time: 6 hr 44 min 6 sec) 
Heartbeat CPU 0 instructions: 1730000002 cycles: 5018755572 heartbeat IPC: 0.238092 cumulative IPC: 0.253724 (Simulation time: 6 hr 47 min 0 sec) 
Heartbeat CPU 0 instructions: 1740000000 cycles: 5047871041 heartbeat IPC: 0.34346 cumulative IPC: 0.25426 (Simulation time: 6 hr 49 min 1 sec) 
Heartbeat CPU 0 instructions: 1750000001 cycles: 5083606537 heartbeat IPC: 0.279834 cumulative IPC: 0.254446 (Simulation time: 6 hr 51 min 26 sec) 
Heartbeat CPU 0 instructions: 1760000000 cycles: 5122777898 heartbeat IPC: 0.255289 cumulative IPC: 0.254453 (Simulation time: 6 hr 54 min 7 sec) 
Heartbeat CPU 0 instructions: 1770000000 cycles: 5174625898 heartbeat IPC: 0.192871 cumulative IPC: 0.253815 (Simulation time: 6 hr 57 min 44 sec) 
Heartbeat CPU 0 instructions: 1780000004 cycles: 5204028924 heartbeat IPC: 0.340101 cumulative IPC: 0.254319 (Simulation time: 6 hr 59 min 45 sec) 
Heartbeat CPU 0 instructions: 1790000001 cycles: 5244585137 heartbeat IPC: 0.246571 cumulative IPC: 0.254257 (Simulation time: 7 hr 2 min 31 sec) 
Heartbeat CPU 0 instructions: 1800000000 cycles: 5280764823 heartbeat IPC: 0.276398 cumulative IPC: 0.254414 (Simulation time: 7 hr 4 min 55 sec) 
Heartbeat CPU 0 instructions: 1810000004 cycles: 5315619539 heartbeat IPC: 0.286905 cumulative IPC: 0.254634 (Simulation time: 7 hr 7 min 11 sec) 
Heartbeat CPU 0 instructions: 1820000001 cycles: 5348598493 heartbeat IPC: 0.303224 cumulative IPC: 0.254943 (Simulation time: 7 hr 9 min 27 sec) 
Heartbeat CPU 0 instructions: 1830000003 cycles: 5376959120 heartbeat IPC: 0.352602 cumulative IPC: 0.255475 (Simulation time: 7 hr 11 min 27 sec) 
Heartbeat CPU 0 instructions: 1840000001 cycles: 5410040305 heartbeat IPC: 0.302287 cumulative IPC: 0.255771 (Simulation time: 7 hr 13 min 45 sec) 
Heartbeat CPU 0 instructions: 1850000000 cycles: 5449193757 heartbeat IPC: 0.255405 cumulative IPC: 0.255768 (Simulation time: 7 hr 16 min 22 sec) 
Heartbeat CPU 0 instructions: 1860000000 cycles: 5490179603 heartbeat IPC: 0.243987 cumulative IPC: 0.255677 (Simulation time: 7 hr 19 min 2 sec) 
Heartbeat CPU 0 instructions: 1870000002 cycles: 5528727632 heartbeat IPC: 0.259417 cumulative IPC: 0.255704 (Simulation time: 7 hr 21 min 39 sec) 
Heartbeat CPU 0 instructions: 1880000003 cycles: 5559920395 heartbeat IPC: 0.320587 cumulative IPC: 0.25608 (Simulation time: 7 hr 23 min 45 sec) 
Heartbeat CPU 0 instructions: 1890000001 cycles: 5595571773 heartbeat IPC: 0.280494 cumulative IPC: 0.25624 (Simulation time: 7 hr 26 min 14 sec) 
Heartbeat CPU 0 instructions: 1900000001 cycles: 5629548388 heartbeat IPC: 0.29432 cumulative IPC: 0.256477 (Simulation time: 7 hr 28 min 27 sec) 
Heartbeat CPU 0 instructions: 1910000002 cycles: 5677555335 heartbeat IPC: 0.208303 cumulative IPC: 0.256057 (Simulation time: 7 hr 31 min 44 sec) 
Heartbeat CPU 0 instructions: 1920000001 cycles: 5718528341 heartbeat IPC: 0.244063 cumulative IPC: 0.255969 (Simulation time: 7 hr 34 min 35 sec) 
Heartbeat CPU 0 instructions: 1930000002 cycles: 5749278845 heartbeat IPC: 0.325198 cumulative IPC: 0.25635 (Simulation time: 7 hr 36 min 41 sec) 
Heartbeat CPU 0 instructions: 1940000002 cycles: 5782149031 heartbeat IPC: 0.304227 cumulative IPC: 0.256631 (Simulation time: 7 hr 38 min 57 sec) 
Heartbeat CPU 0 instructions: 1950000000 cycles: 5818668998 heartbeat IPC: 0.273823 cumulative IPC: 0.256742 (Simulation time: 7 hr 41 min 22 sec) 
Heartbeat CPU 0 instructions: 1960000002 cycles: 5856070671 heartbeat IPC: 0.267368 cumulative IPC: 0.256812 (Simulation time: 7 hr 43 min 54 sec) 
Heartbeat CPU 0 instructions: 1970000001 cycles: 5889255603 heartbeat IPC: 0.301342 cumulative IPC: 0.25707 (Simulation time: 7 hr 46 min 10 sec) 
Heartbeat CPU 0 instructions: 1980000000 cycles: 5926982092 heartbeat IPC: 0.265066 cumulative IPC: 0.257123 (Simulation time: 7 hr 48 min 45 sec) 
Heartbeat CPU 0 instructions: 1990000002 cycles: 5964865070 heartbeat IPC: 0.263971 cumulative IPC: 0.257167 (Simulation time: 7 hr 51 min 19 sec) 
*** Reached end of trace: traces/605.mcf_s-472B.champsimtrace.xz
Heartbeat CPU 0 instructions: 2000000002 cycles: 6006987719 heartbeat IPC: 0.237402 cumulative IPC: 0.257025 (Simulation time: 7 hr 54 min 15 sec) 
Finished CPU 0 instructions: 1500000000 cycles: 5836014564 cumulative IPC: 0.257025 (Simulation time: 7 hr 54 min 15 sec) 

ChampSim completed all CPUs

Region of Interest Statistics

CPU 0 cumulative IPC: 0.257025 instructions: 1500000000 cycles: 5836014564
cpu0_DTLB TOTAL     ACCESS:  491782198  HIT:  487761090  MISS:    4021108
cpu0_DTLB LOAD      ACCESS:  338809880  HIT:  334941716  MISS:    3868164
cpu0_DTLB RFO       ACCESS:  152972318  HIT:  152819374  MISS:     152944
cpu0_DTLB PREFETCH  ACCESS:          0  HIT:          0  MISS:          0
cpu0_DTLB WRITEBACK ACCESS:          0  HIT:          0  MISS:          0
cpu0_DTLB TRANSLATION ACCESS:          0  HIT:          0  MISS:          0
cpu0_DTLB PREFETCH  REQUESTED:          0  ISSUED:          0  USEFUL:          0  USELESS:          0
cpu0_DTLB AVERAGE MISS LATENCY: 22.6364 cycles
cpu0_ITLB TOTAL     ACCESS:  141498448  HIT:  141498448  MISS:          0
cpu0_ITLB LOAD      ACCESS:  141498448  HIT:  141498448  MISS:          0
cpu0_ITLB RFO       ACCESS:          0  HIT:          0  MISS:          0
cpu0_ITLB PREFETCH  ACCESS:          0  HIT:          0  MISS:          0
cpu0_ITLB WRITEBACK ACCESS:          0  HIT:          0  MISS:          0
cpu0_ITLB TRANSLATION ACCESS:          0  HIT:          0  MISS:          0
cpu0_ITLB PREFETCH  REQUESTED:          0  ISSUED:          0  USEFUL:          0  USELESS:          0
cpu0_ITLB AVERAGE MISS LATENCY: -nan cycles
cpu0_L1I TOTAL     ACCESS:   99547743  HIT:   99547743  MISS:          0
cpu0_L1I LOAD      ACCESS:   99547743  HIT:   99547743  MISS:          0
cpu0_L1I RFO       ACCESS:          0  HIT:          0  MISS:          0
cpu0_L1I PREFETCH  ACCESS:          0  HIT:          0  MISS:          0
cpu0_L1I WRITEBACK ACCESS:          0  HIT:          0  MISS:          0
cpu0_L1I TRANSLATION ACCESS:          0  HIT:          0  MISS:          0
cpu0_L1I PREFETCH  REQUESTED:          0  ISSUED:          0  USEFUL:          0  USELESS:          0
cpu0_L1I AVERAGE MISS LATENCY: -nan cycles
cpu0_STLB TOTAL     ACCESS:    4021108  HIT:    2297750  MISS:    1723358
cpu0_STLB LOAD      ACCESS:    3868164  HIT:    2200772  MISS:    1667392
cpu0_STLB RFO       ACCESS:     152944  HIT:      96978  MISS:      55966
cpu0_STLB PREFETCH  ACCESS:          0  HIT:          0  MISS:          0
cpu0_STLB WRITEBACK ACCESS:          0  HIT:          0  MISS:          0
cpu0_STLB TRANSLATION ACCESS:          0  HIT:          0  MISS:          0
cpu0_STLB PREFETCH  REQUESTED:          0  ISSUED:          0  USEFUL:          0  USELESS:          0
cpu0_STLB AVERAGE MISS LATENCY: 31.8164 cycles
cpu0_L1D TOTAL     ACCESS:  702204481  HIT:  635479446  MISS:   66725035
cpu0_L1D LOAD      ACCESS:  332859470  HIT:  269845071  MISS:   63014399
cpu0_L1D RFO       ACCESS:  367621666  HIT:  363988894  MISS:    3632772
cpu0_L1D PREFETCH  ACCESS:          0  HIT:          0  MISS:          0
cpu0_L1D WRITEBACK ACCESS:          0  HIT:          0  MISS:          0
cpu0_L1D TRANSLATION ACCESS:    1723345  HIT:    1645481  MISS:      77864
cpu0_L1D PREFETCH  REQUESTED:          0  ISSUED:          0  USEFUL:          0  USELESS:          0
cpu0_L1D AVERAGE MISS LATENCY: 254.996 cycles
cpu0_L2C TOTAL     ACCESS:   74396503  HIT:    8669674  MISS:   65726829
cpu0_L2C LOAD      ACCESS:   63014277  HIT:     920538  MISS:   62093739
cpu0_L2C RFO       ACCESS:    3632716  HIT:      56288  MISS:    3576428
cpu0_L2C PREFETCH  ACCESS:          0  HIT:          0  MISS:          0
cpu0_L2C WRITEBACK ACCESS:    7671646  HIT:    7634522  MISS:      37124
cpu0_L2C TRANSLATION ACCESS:      77864  HIT:      58326  MISS:      19538
cpu0_L2C PREFETCH  REQUESTED:          0  ISSUED:          0  USEFUL:          0  USELESS:          0
cpu0_L2C AVERAGE MISS LATENCY: 247.583 cycles
LLC TOTAL     ACCESS:   72662717  HIT:    7019774  MISS:   65642943
LLC LOAD      ACCESS:   62093737  HIT:      60554  MISS:   62033183
LLC RFO       ACCESS:    3576428  HIT:       2111  MISS:    3574317
LLC PREFETCH  ACCESS:          0  HIT:          0  MISS:          0
LLC WRITEBACK ACCESS:    6973014  HIT:    6947856  MISS:      25158
LLC TRANSLATION ACCESS:      19538  HIT:       9253  MISS:      10285
LLC PREFETCH  REQUESTED:          0  ISSUED:          0  USEFUL:          0  USELESS:          0
LLC AVERAGE MISS LATENCY: 226.885 cycles
~~~~~~~~~~Reuse Distance Profiler output~~~~~~~~~~
0	196102160	20461472
1	73708656	22512224
2	84300208	24870496
3	37094688	22949024
4	34452256	24911008
5	28937264	14460672
6	30458704	10093120
7	29081216	7987664
8	32630208	8515152
9	27733008	7706448
10	17244048	6133152
11	22539600	18481984
12	29927088	17263648
13	14759136	11532896
14	15613296	14918336
15	15655680	14754544
16	2806320	2258144
17	1299584	906496
18	1202128	820832
19	1171488	837104
20	1532592	1195888
21	1387360	1093760
22	1297872	991280
23	1033952	768096
24	803600	595680
25	782224	600624
26	573904	403648
27	485376	336768
28	457984	300128
29	426688	293200
30	424816	264016
31	382896	250576
32	373952	256816
33	361168	248560
34	371616	245680
35	342720	219888
36	286608	198544
37	299312	192544
38	288272	160608
39	257392	165008
40	258352	156736
41	218560	119440
42	164016	85456
43	153168	83328
44	224000	82032
45	155472	81600
46	142736	80400
47	118960	63568
48	137728	85504
49	138832	88832
50	134432	85952
51	133680	84656
52	113328	78960
53	96016	65152
54	81936	59552
55	76848	58640
56	47248	34048
57	35552	23456
58	44944	32688
59	54368	41584
60	51856	38112
61	48128	35120
62	44864	31936
63	35856	21968
64	56960	31120
66	41984	17024
68	33520	10000
70	32880	10000
72	33360	9744
74	35296	10704
76	29808	7632
78	36912	10288
80	39184	11120
82	36160	8128
84	39040	10000
86	37808	9744
88	41168	11312
90	43536	12432
92	43632	10016
94	43200	9152
96	48416	11600
98	46496	9792
100	45296	5920
102	47648	6496
104	50416	7120
106	52096	6208
108	52592	4000
110	58976	4992
112	64592	4848
114	69520	3072
116	74944	2608
118	81344	3264
120	87968	4672
122	108160	4176
124	140784	4592
126	176864	4480
128	471904	11696
132	579392	8784
136	728704	14240
140	943920	15232
144	1072112	19184
148	1197888	17872
152	1268304	23968
156	1522592	31248
160	1614560	37088
164	1418384	39952
168	957552	46768
172	523712	61120
176	240848	72448
180	116496	75920
184	98496	91008
188	135984	126928
192	165648	156672
196	173616	170528
200	193936	189840
204	260320	247904
208	334448	317088
212	372432	367760
216	389712	384448
220	463296	450400
224	591408	569648
228	704800	695136
232	732320	723792
236	766576	749936
240	881488	861920
244	975696	963360
248	908960	900640
252	720496	705328
256	1288896	1240928
264	930256	899552
272	653360	559872
280	430064	382656
288	510368	383856
296	401232	329104
304	682912	543328
312	595056	486064
320	1104752	972992
328	1018640	909008
336	1947440	1836240
344	1886416	1781600
352	3414976	3287376
360	3676832	3526256
368	5074560	4854880
376	6913328	6642704
384	6386176	5935872
392	10003024	9570800
400	9308448	8534464
408	8700016	8095888
416	7154864	6362000
424	5003424	4419248
432	5147264	4523232
440	3766896	3490112
448	1885680	1716304
456	864656	793136
464	585648	552544
472	370144	344400
480	314416	292752
488	267072	247744
496	222624	207872
504	191552	177296
512	322160	297824
528	283808	264304
544	258448	240208
560	264288	244336
576	261312	243200
592	246336	227456
608	222384	205664
624	209744	195440
640	200112	184816
656	190096	174464
672	144384	131744
688	112112	101168
704	96704	89088
720	92624	85760
736	108384	98896
752	107328	98256
768	96208	87408
784	95472	88192
800	98384	90944
816	110096	102864
832	119200	111424
848	127280	118912
864	113360	105472
880	91792	85040
896	81776	76176
912	67200	61776
928	63936	57920
944	65968	61360
960	72144	66976
976	80560	75360
992	82768	77392
1008	84688	78256
1024	186656	175584
1056	189072	176384
1088	155568	145904
1120	159248	149136
1152	142992	131664
1184	158128	148416
1216	194912	185024
1248	185664	175440
1280	169024	160800
1312	123264	116704
1344	95760	89808
1376	89056	83664
1408	70800	65632
1440	68800	63184
1472	64336	58544
1504	61488	56592
1536	70512	65456
1568	65792	60224
1600	51184	48192
1632	71344	68224
1664	92720	87808
1696	109664	104272
1728	104784	99616
1760	74192	69568
1792	69472	63712
1824	85728	81408
1856	117600	110608
1888	127504	119392
1920	108928	100672
1952	94192	87808
1984	74640	69408
2016	76720	72320
2048	199536	187696
2112	189936	181168
2176	172448	162624
2240	110528	104512
2304	92592	86592
2368	83600	79312
2432	82256	77696
2496	73856	70720
2560	59344	58016
2624	58208	56320
2688	55568	52608
2752	28304	26896
2816	31344	30752
2880	39680	38672
2944	45488	44512
3008	43648	42672
3072	26656	26288
3136	28048	27408
3200	22576	21808
3264	22336	22064
3328	28944	28544
3392	37872	36752
3456	33984	33520
3520	22928	22560
3584	11936	11904
3648	12432	12368
3712	18576	18240
3776	18752	18432
3840	22352	21904
3904	22896	22672
3968	15168	15072
4032	16160	15552
4096	36672	35664
4224	29248	28960
4352	26240	26032
4480	15392	15184
4608	20800	20560
4736	29728	29232
4864	16880	16720
4992	18240	18112
5120	19328	19264
5248	18640	18560
5376	15648	15600
5504	16208	16176
5632	20160	20096
5760	14384	14304
5888	12768	12688
6016	18160	18112
6144	15552	15472
6272	12976	12912
6400	12080	11952
6528	15296	15168
6656	11808	11776
6784	10960	10880
6912	12768	12656
7040	9936	9872
7168	8880	8832
7296	10704	10576
7424	9088	9088
7552	7680	7600
7680	7056	7024
7808	8880	8752
7936	8368	8368
8064	6944	6928
8192	15424	15344
8448	13040	12992
8704	13872	13776
8960	13552	13488
9216	13328	13248
9472	13904	13872
9728	11888	11840
9984	12656	12640
10240	11408	11280
10496	12656	12560
10752	12800	12736
11008	11472	11360
11264	11520	11392
11520	9536	9488
11776	11088	11056
12032	9328	9296
12288	9584	9568
12544	8800	8784
12800	7872	7840
13056	7584	7552
13312	6896	6864
13568	6960	6928
13824	6448	6400
14080	5984	5968
14336	6400	6336
14592	5488	5456
14848	7280	7248
15104	5824	5776
15360	6032	5856
15616	8080	7536
15872	13024	12176
16128	8368	8048
16384	10976	10752
16896	12128	12000
17408	12384	11888
17920	13872	13408
18432	11312	11072
18944	11120	10912
19456	8608	8512
19968	8768	8656
20480	7440	7408
20992	7872	7824
21504	8656	8592
22016	8528	8464
22528	7456	7392
23040	6688	6656
23552	7120	7088
24064	6160	6144
24576	5728	5696
25088	5760	5744
25600	4624	4592
26112	4272	4256
26624	4624	4576
27136	3984	3984
27648	3648	3584
28160	3792	3792
28672	3408	3392
29184	3504	3472
29696	3552	3520
30208	3232	3232
30720	3728	3712
31232	3184	3168
31744	2832	2816
32256	3360	3360
32768	6768	6688
33792	6096	6016
34816	6432	6368
35840	5040	5008
36864	5184	5168
37888	5040	5008
38912	5376	5312
39936	5376	5328
40960	5712	5616
41984	5136	5120
43008	5440	5424
44032	4416	4400
45056	4736	4720
46080	4096	4064
47104	3776	3776
48128	3584	3568
49152	3072	3024
50176	2768	2752
51200	2768	2736
52224	3056	3008
53248	2016	2016
54272	1904	1904
55296	2736	2736
56320	1904	1888
57344	1984	1968
58368	2000	1952
59392	1904	1888
60416	2752	2752
61440	2160	2128
62464	1904	1872
63488	2432	2400
64512	2000	1952
65536	4096	4096
67584	3392	3360
69632	4080	4048
71680	3392	3376
73728	2832	2736
75776	3056	2992
77824	3184	3184
79872	3440	3408
81920	3440	3376
83968	3184	3152
86016	2976	2944
88064	3264	3264
90112	2928	2880
92160	2544	2544
94208	2048	2048
96256	1696	1696
98304	1936	1904
100352	1760	1744
102400	1920	1872
104448	1488	1488
106496	1216	1200
108544	1392	1392
110592	1568	1552
112640	1280	1264
114688	1216	1184
116736	1056	1040
118784	1376	1248
120832	4528	4192
122880	5104	4784
124928	4624	4288
126976	5440	5216
129024	4928	4752
131072	6560	6432
135168	4016	3824
139264	5024	4848
143360	4656	4528
147456	5296	5152
151552	3472	3376
155648	2560	2496
159744	2800	2768
163840	2448	2416
167936	2992	2944
172032	551392	551360
176128	880192	880032
180224	538272	538240
184320	168576	168576
188416	182672	182656
192512	639344	639232
196608	190064	190048
200704	192000	191984
204800	321808	321744
208896	268848	268816
212992	253696	253648
217088	416416	416416
221184	1291968	1291840
225280	2342928	2342768
229376	2200224	2200016
233472	3296416	3296144
237568	3171680	3171312
241664	2788656	2788496
245760	2518992	2518848
249856	2932160	2931984
253952	1930080	1929984
258048	824864	824864
262144	1554928	1554928
270336	1467232	1467232
278528	1273248	1273232
286720	1023984	1023968
294912	763424	763408
303104	550400	550384
311296	355328	355328
319488	223888	223888
327680	127408	127408
335872	90944	90944
344064	79760	79760
352256	72368	72368
360448	66272	66256
368640	65856	65856
376832	63424	63392
385024	60032	60032
393216	58320	58320
401408	55744	55744
409600	56144	56144
417792	53808	53760
425984	53824	53824
434176	53392	53392
442368	51952	51952
450560	50944	50928
458752	49936	49936
466944	49296	49296
475136	47520	47504
483328	47072	47072
491520	47408	47392
499712	48096	48080
507904	45904	45888
516096	45376	45376
524288	92240	92240
540672	90864	90864
557056	89344	89344
573440	89520	89488
589824	89296	89296
606208	90320	90288
622592	90416	90416
638976	88144	88144
655360	88560	88560
671744	87824	87808
688128	86416	86400
704512	87776	87776
720896	88000	88000
737280	88560	88528
753664	86752	86736
770048	87472	87456
786432	87808	87808
802816	87328	87328
819200	88960	88960
835584	90672	90672
851968	91072	91072
868352	96144	96144
884736	110608	110608
901120	136992	136992
917504	248208	248208
933888	228800	228784
950272	337408	337376
966656	313568	313552
983040	543280	543200
999424	718160	718096
1015808	524384	524368
1032192	660784	660752
1048576	1536512	1536464
1081344	2135984	2135856
1114112	1723232	1723104
1146880	1872528	1872384
1179648	1568464	1568432
1212416	1570960	1570912
1245184	1920272	1920192
1277952	2251808	2251616
1310720	2060320	2060208
1343488	2643456	2643200
1376256	2170992	2170896
1409024	2206496	2206464
1441792	1872688	1872608
1474560	1977296	1977104
1507328	1510576	1510480
1540096	975888	975856
1572864	758688	758656
1605632	794624	794496
1638400	707104	707104
1671168	599472	599392
1703936	387536	387488
1736704	431008	430960
1769472	741968	741904
1802240	331824	331824
1835008	232688	232656
1867776	288944	288928
1900544	220944	220912
1933312	20800	20800
1966080	224	224
1998848	320	304
2031616	240	240
2064384	240	240
2097152	256	256
2162688	432	432
2228224	352	352
2293760	368	368
2359296	304	304
2424832	96	80
2490368	176	176
2555904	128	128
2621440	240	240
2686976	144	144
2752512	208	208
2818048	224	224
2883584	96	96
2949120	176	176
3014656	256	256
3080192	128	128
3145728	96	96
3211264	320	320
3276800	48	48
3342336	112	112
3407872	288	288
3473408	96	96
3538944	144	144
3604480	64	64
3670016	144	144
3735552	192	176
3801088	176	176
3866624	160	160
3932160	176	176
3997696	48	48
4063232	160	160
4128768	144	144
4194304	304	304
4325376	144	144
4456448	96	96
4587520	208	208
4718592	208	208
4849664	64	64
4980736	112	112
5111808	176	176
5242880	160	144
5373952	192	192
5505024	96	96
5636096	80	80
5767168	112	112
5898240	96	96
6029312	16	16
6160384	208	208
6291456	112	96
6422528	224	224
6553600	80	80
6684672	176	176
6815744	16	16
6946816	32	32
7077888	64	64
7208960	80	80
7340032	80	80
7471104	96	96
7602176	192	176
7733248	64	64
7864320	64	64
7995392	80	80
8126464	0	0
8257536	96	96
8388608	48	48
8650752	112	112
8912896	176	160
9175040	64	64
9437184	32	32
9699328	64	64
9961472	64	64
10223616	96	96
10485760	32	32
10747904	48	48
11010048	48	32
11272192	80	80
11534336	32	32
11796480	96	96
12058624	48	48
12320768	80	80
12582912	0	0
12845056	16	16
13107200	96	96
13369344	0	0
13631488	32	16
13893632	6432	5584
14155776	5248	4544
14417920	4672	3648
14680064	22880	21920
14942208	39152	38496
15204352	1120	416
15466496	1648	832
15728640	1472	720
15990784	1728	784
16252928	4112	848
16515072	3952	3392
16777216	5120	3152
17301504	3648	1728
17825792	3296	1728
18350080	6560	2080
18874368	3120	1600
19398656	6320	4160
19922944	3104	1616
20447232	3632	1520
20971520	5600	3984
21495808	4272	2368
22020096	4480	1488
22544384	3664	2080
23068672	3424	1664
23592960	8848	2064
24117248	2736	1376
24641536	6144	3952
25165824	7824	6704
25690112	3920	2384
26214400	2960	1184
26738688	10704	2416
27262976	9072	1136
27787264	3120	1632
28311552	3856	1552
28835840	7856	1104
29360128	5616	1408
29884416	3392	1344
30408704	7648	3600
30932992	4128	2336
31457280	5728	3936
31981568	5664	3920
32505856	6352	1520
33030144	5376	1440
33554432	10096	6736
34603008	6720	3376
35651584	12912	10336
36700160	6368	3472
37748736	6368	3040
38797312	16464	10304
39845888	16240	3408
40894464	8768	3408
41943040	5952	3424
42991616	8112	3568
44040192	16144	3584
45088768	6928	3840
46137344	5888	3040
47185920	14208	3360
48234496	9776	3472
49283072	8608	5376
50331648	11120	2624
51380224	12656	6128
52428800	6928	3216
53477376	9344	5584
54525952	7824	4992
55574528	7632	2640
56623104	6576	3440
57671680	13568	8352
58720256	9328	3184
59768832	12032	8320
60817408	7728	3440
61865984	19376	9392
62914560	6320	3504
63963136	8672	4784
65011712	8432	2992
66060288	13376	1664
67108864	16528	7696
69206016	16656	9648
71303168	18864	9120
73400320	12560	5712
75497472	16976	6368
77594624	11744	5504
79691776	32880	15632
81788928	12800	5744
83886080	23136	9728
85983232	25984	9520
88080384	19616	10496
90177536	17136	10752
92274688	14656	8272
94371840	13008	7264
96468992	15760	9200
98566144	18992	10256
100663296	33696	10256
102760448	18144	6448
104857600	15168	5664
106954752	19616	8704
109051904	13088	5920
111149056	18752	13088
113246208	31616	19648
115343360	24480	14592
117440512	26400	10240
119537664	33056	9872
121634816	15040	5984
123731968	13296	4064
125829120	8384	0
127926272	7104	0
130023424	7296	0
132120576	11232	0
134217728	18448	0
138412032	19632	0
142606336	19984	0
146800640	26720	0
150994944	20752	0
155189248	23808	0
159383552	18304	0
163577856	16144	0
167772160	25696	0
171966464	31552	0
176160768	17568	0
180355072	16192	16
184549376	18960	16
188743680	17696	0
192937984	19184	0
197132288	19776	0
201326592	24416	0
205520896	20864	0
209715200	12400	0
213909504	12800	0
218103808	15728	0
222298112	15648	16
226492416	24304	80
230686720	25088	0
234881024	10944	0
239075328	12640	0
243269632	12400	0
247463936	12768	0
251658240	30128	0
255852544	12064	0
260046848	13136	0
264241152	15248	0
268435456	35712	0
276824064	26736	0
285212672	40224	0
293601280	37520	0
301989888	42960	0
310378496	46256	0
318767104	50736	0
327155712	44816	0
335544320	55792	0
343932928	43152	0
352321536	59712	0
360710144	32288	0
369098752	35792	0
377487360	44448	0
385875968	36736	0
394264576	50928	0
402653184	36704	16
411041792	34896	0
419430400	36576	0
427819008	46704	0
436207616	42800	0
444596224	33712	0
452984832	36000	0
461373440	31760	0
469762048	44880	0
478150656	46944	0
486539264	39808	0
494927872	26512	0
503316480	30400	0
511705088	40144	0
520093696	45056	0
528482304	39888	0
536870912	93472	0
553648128	71856	0
570425344	86160	0
587202560	74080	0
603979776	89456	0
620756992	71744	0
637534208	66640	0
654311424	84384	0
671088640	70272	0
687865856	88160	0
704643072	60848	0
721420288	64720	0
738197504	70560	0
754974720	75408	0
771751936	56048	0
788529152	80928	0
805306368	0	0
822083584	0	0
838860800	0	0
855638016	0	0
872415232	0	0
889192448	0	0
905969664	0	0
922746880	0	0
939524096	0	0
956301312	0	0
973078528	0	0
989855744	0	0
1006632960	0	0
1023410176	0	0
1040187392	0	0
1056964608	0	0
1073741824	0	0
1107296256	0	0
1140850688	0	0
1174405120	0	0
1207959552	0	0
1241513984	0	0
1275068416	0	0
1308622848	0	0
1342177280	0	0
1375731712	0	0
1409286144	0	0
1442840576	0	0
1476395008	0	0
1509949440	0	0
1543503872	0	0
1577058304	0	0
1610612736	0	0
1644167168	0	0
1677721600	0	0
1711276032	0	0
1744830464	0	0
1778384896	0	0
1811939328	0	0
1845493760	0	0
1879048192	0	0
1912602624	0	0
1946157056	0	0
1979711488	0	0
2013265920	0	0
2046820352	0	0
2080374784	0	0
2113929216	0	0
2147483648	0	0
2214592512	0	0
2281701376	0	0
2348810240	0	0
2415919104	0	0
2483027968	0	0
2550136832	0	0
2617245696	0	0
2684354560	0	0
2751463424	0	0
2818572288	0	0
2885681152	0	0
2952790016	0	0
3019898880	0	0
3087007744	0	0
3154116608	0	0
3221225472	0	0
3288334336	0	0
3355443200	0	0
3422552064	0	0
3489660928	0	0
3556769792	0	0
3623878656	0	0
3690987520	0	0
3758096384	0	0
3825205248	0	0
3892314112	0	0
3959422976	0	0
4026531840	0	0
4093640704	0	0
4160749568	0	0
4227858432	0	0
~~~~~~~~~~Reuse Distance Profiler output end~~~~~~~~~~

DRAM Statistics
 CHANNEL 0
 RQ ROW_BUFFER_HIT:    9382644  ROW_BUFFER_MISS:   56233469
 DBUS AVG_CONGESTED_CYCLE:    3.90593
 WQ ROW_BUFFER_HIT:     513744  ROW_BUFFER_MISS:    6412365  FULL:          0


CPU 0 Branch Prediction Accuracy: 98.011% MPKI: 2.21082 Average ROB Occupancy at Mispredict: 180.711
Branch type MPKI
BRANCH_DIRECT_JUMP: 0
BRANCH_INDIRECT: 0
BRANCH_CONDITIONAL: 2.21082
BRANCH_DIRECT_CALL: 0
BRANCH_INDIRECT_CALL: 0
BRANCH_RETURN: 0

