
*** ChampSim Multicore Out-of-Order Simulator ***

Warmup Instructions: 500000000
Simulation Instructions: 1500000000
Number of CPUs: 1
Off-chip DRAM Size: 4 GiB Channels: 1 Width: 64-bit Data Rate: 3200 MT/s

VirtualMemory physical capacity: 8588881920 num_ppages: 2096895
VirtualMemory page size: 4096 log2_page_size: 12

CPU 0 runs traces/605.mcf_s-1644B.champsimtrace.xz
CPU 0 Bimodal branch predictor
Basic BTB sets: 1024 ways: 8 indirect buffer size: 4096 RAS size: 64
Initializing LRU.
Initializing LRU.
Initializing LRU.
Initializing LRU.
Initializing rdLRU.
Initializing LRU.
Initializing LRU.
Heartbeat CPU 0 instructions: 10000000 cycles: 3499467 heartbeat IPC: 2.85758 cumulative IPC: 2.85758 (Simulation time: 0 hr 1 min 24 sec) 
Heartbeat CPU 0 instructions: 20000003 cycles: 6997680 heartbeat IPC: 2.8586 cumulative IPC: 2.85809 (Simulation time: 0 hr 3 min 3 sec) 
Heartbeat CPU 0 instructions: 30000000 cycles: 10496357 heartbeat IPC: 2.85822 cumulative IPC: 2.85813 (Simulation time: 0 hr 4 min 46 sec) 
Heartbeat CPU 0 instructions: 40000001 cycles: 13995032 heartbeat IPC: 2.85823 cumulative IPC: 2.85816 (Simulation time: 0 hr 6 min 1 sec) 
Heartbeat CPU 0 instructions: 50000000 cycles: 17493506 heartbeat IPC: 2.85839 cumulative IPC: 2.8582 (Simulation time: 0 hr 7 min 41 sec) 
Heartbeat CPU 0 instructions: 60000004 cycles: 20990700 heartbeat IPC: 2.85944 cumulative IPC: 2.85841 (Simulation time: 0 hr 9 min 21 sec) 
Heartbeat CPU 0 instructions: 70000004 cycles: 24489910 heartbeat IPC: 2.85779 cumulative IPC: 2.85832 (Simulation time: 0 hr 11 min 12 sec) 
Heartbeat CPU 0 instructions: 80000001 cycles: 27990058 heartbeat IPC: 2.85702 cumulative IPC: 2.85816 (Simulation time: 0 hr 12 min 35 sec) 
Heartbeat CPU 0 instructions: 90000002 cycles: 31489147 heartbeat IPC: 2.85789 cumulative IPC: 2.85813 (Simulation time: 0 hr 13 min 53 sec) 
Heartbeat CPU 0 instructions: 100000004 cycles: 34986678 heartbeat IPC: 2.85916 cumulative IPC: 2.85823 (Simulation time: 0 hr 15 min 10 sec) 
Heartbeat CPU 0 instructions: 110000000 cycles: 38485266 heartbeat IPC: 2.85829 cumulative IPC: 2.85824 (Simulation time: 0 hr 17 min 12 sec) 
Heartbeat CPU 0 instructions: 120000003 cycles: 41985162 heartbeat IPC: 2.85723 cumulative IPC: 2.85815 (Simulation time: 0 hr 19 min 15 sec) 
Heartbeat CPU 0 instructions: 130000000 cycles: 45486394 heartbeat IPC: 2.85614 cumulative IPC: 2.858 (Simulation time: 0 hr 21 min 17 sec) 
Heartbeat CPU 0 instructions: 140000000 cycles: 48981067 heartbeat IPC: 2.8615 cumulative IPC: 2.85825 (Simulation time: 0 hr 22 min 48 sec) 
Heartbeat CPU 0 instructions: 150000003 cycles: 52479425 heartbeat IPC: 2.85848 cumulative IPC: 2.85826 (Simulation time: 0 hr 23 min 56 sec) 
Heartbeat CPU 0 instructions: 160000003 cycles: 55981151 heartbeat IPC: 2.85573 cumulative IPC: 2.8581 (Simulation time: 0 hr 25 min 5 sec) 
Heartbeat CPU 0 instructions: 170000004 cycles: 59478852 heartbeat IPC: 2.85902 cumulative IPC: 2.85816 (Simulation time: 0 hr 26 min 13 sec) 
Heartbeat CPU 0 instructions: 180000004 cycles: 62976264 heartbeat IPC: 2.85926 cumulative IPC: 2.85822 (Simulation time: 0 hr 27 min 21 sec) 
Heartbeat CPU 0 instructions: 190000000 cycles: 66474233 heartbeat IPC: 2.8588 cumulative IPC: 2.85825 (Simulation time: 0 hr 28 min 29 sec) 
Heartbeat CPU 0 instructions: 200000001 cycles: 69975958 heartbeat IPC: 2.85574 cumulative IPC: 2.85812 (Simulation time: 0 hr 29 min 37 sec) 
Heartbeat CPU 0 instructions: 210000000 cycles: 73471223 heartbeat IPC: 2.86101 cumulative IPC: 2.85826 (Simulation time: 0 hr 30 min 46 sec) 
Heartbeat CPU 0 instructions: 220000003 cycles: 76970408 heartbeat IPC: 2.85781 cumulative IPC: 2.85824 (Simulation time: 0 hr 31 min 56 sec) 
Heartbeat CPU 0 instructions: 230000002 cycles: 80465717 heartbeat IPC: 2.86098 cumulative IPC: 2.85836 (Simulation time: 0 hr 33 min 6 sec) 
Heartbeat CPU 0 instructions: 240000002 cycles: 83962980 heartbeat IPC: 2.85938 cumulative IPC: 2.8584 (Simulation time: 0 hr 34 min 26 sec) 
Heartbeat CPU 0 instructions: 250000000 cycles: 87466609 heartbeat IPC: 2.85418 cumulative IPC: 2.85823 (Simulation time: 0 hr 35 min 35 sec) 
Heartbeat CPU 0 instructions: 260000000 cycles: 90963289 heartbeat IPC: 2.85986 cumulative IPC: 2.8583 (Simulation time: 0 hr 36 min 44 sec) 
Heartbeat CPU 0 instructions: 270000002 cycles: 94468789 heartbeat IPC: 2.85266 cumulative IPC: 2.85809 (Simulation time: 0 hr 37 min 52 sec) 
Heartbeat CPU 0 instructions: 280000000 cycles: 97963308 heartbeat IPC: 2.86162 cumulative IPC: 2.85821 (Simulation time: 0 hr 39 min 0 sec) 
Heartbeat CPU 0 instructions: 290000001 cycles: 101455592 heartbeat IPC: 2.86346 cumulative IPC: 2.85839 (Simulation time: 0 hr 40 min 9 sec) 
Heartbeat CPU 0 instructions: 300000000 cycles: 104948652 heartbeat IPC: 2.86282 cumulative IPC: 2.85854 (Simulation time: 0 hr 41 min 18 sec) 
Heartbeat CPU 0 instructions: 310000002 cycles: 108456467 heartbeat IPC: 2.85078 cumulative IPC: 2.85829 (Simulation time: 0 hr 42 min 27 sec) 
Heartbeat CPU 0 instructions: 320000001 cycles: 111951146 heartbeat IPC: 2.86149 cumulative IPC: 2.85839 (Simulation time: 0 hr 44 min 19 sec) 
Heartbeat CPU 0 instructions: 330000003 cycles: 115448249 heartbeat IPC: 2.85951 cumulative IPC: 2.85842 (Simulation time: 0 hr 46 min 23 sec) 
Heartbeat CPU 0 instructions: 340000001 cycles: 118950638 heartbeat IPC: 2.85519 cumulative IPC: 2.85833 (Simulation time: 0 hr 47 min 32 sec) 
Heartbeat CPU 0 instructions: 350000000 cycles: 122448792 heartbeat IPC: 2.85865 cumulative IPC: 2.85834 (Simulation time: 0 hr 48 min 39 sec) 
Heartbeat CPU 0 instructions: 360000001 cycles: 125949845 heartbeat IPC: 2.85628 cumulative IPC: 2.85828 (Simulation time: 0 hr 49 min 47 sec) 
Heartbeat CPU 0 instructions: 370000004 cycles: 129448428 heartbeat IPC: 2.8583 cumulative IPC: 2.85828 (Simulation time: 0 hr 50 min 55 sec) 
Heartbeat CPU 0 instructions: 380000004 cycles: 132950791 heartbeat IPC: 2.85522 cumulative IPC: 2.8582 (Simulation time: 0 hr 52 min 2 sec) 
Heartbeat CPU 0 instructions: 390000001 cycles: 136452982 heartbeat IPC: 2.85535 cumulative IPC: 2.85813 (Simulation time: 0 hr 53 min 11 sec) 
Heartbeat CPU 0 instructions: 400000000 cycles: 139951098 heartbeat IPC: 2.85868 cumulative IPC: 2.85814 (Simulation time: 0 hr 54 min 18 sec) 
Heartbeat CPU 0 instructions: 410000001 cycles: 143450774 heartbeat IPC: 2.85741 cumulative IPC: 2.85812 (Simulation time: 0 hr 55 min 26 sec) 
Heartbeat CPU 0 instructions: 420000003 cycles: 146946614 heartbeat IPC: 2.86054 cumulative IPC: 2.85818 (Simulation time: 0 hr 56 min 45 sec) 
Heartbeat CPU 0 instructions: 430000000 cycles: 150442978 heartbeat IPC: 2.86011 cumulative IPC: 2.85823 (Simulation time: 0 hr 58 min 9 sec) 
Heartbeat CPU 0 instructions: 440000000 cycles: 153939954 heartbeat IPC: 2.85961 cumulative IPC: 2.85826 (Simulation time: 0 hr 59 min 36 sec) 
Heartbeat CPU 0 instructions: 450000002 cycles: 157083918 heartbeat IPC: 3.1807 cumulative IPC: 2.86471 (Simulation time: 1 hr 0 min 51 sec) 
Heartbeat CPU 0 instructions: 460000001 cycles: 160683937 heartbeat IPC: 2.77776 cumulative IPC: 2.86276 (Simulation time: 1 hr 1 min 51 sec) 
Heartbeat CPU 0 instructions: 470000002 cycles: 164066395 heartbeat IPC: 2.95643 cumulative IPC: 2.86469 (Simulation time: 1 hr 2 min 39 sec) 
Heartbeat CPU 0 instructions: 480000003 cycles: 167481858 heartbeat IPC: 2.92786 cumulative IPC: 2.86598 (Simulation time: 1 hr 3 min 27 sec) 
Heartbeat CPU 0 instructions: 490000000 cycles: 170634565 heartbeat IPC: 3.17188 cumulative IPC: 2.87163 (Simulation time: 1 hr 4 min 11 sec) 
Heartbeat CPU 0 instructions: 500000000 cycles: 173756918 heartbeat IPC: 3.20271 cumulative IPC: 2.87758 (Simulation time: 1 hr 4 min 54 sec) 

Warmup complete CPU 0 instructions: 500000005 cycles: 173756919 (Simulation time: 1 hr 4 min 54 sec) 

Heartbeat CPU 0 instructions: 510000001 cycles: 185042086 heartbeat IPC: 0.886119 cumulative IPC: 0.886119 (Simulation time: 1 hr 6 min 6 sec) 
Heartbeat CPU 0 instructions: 520000001 cycles: 195586696 heartbeat IPC: 0.948352 cumulative IPC: 0.91618 (Simulation time: 1 hr 7 min 8 sec) 
Heartbeat CPU 0 instructions: 530000002 cycles: 205360663 heartbeat IPC: 1.02313 cumulative IPC: 0.949255 (Simulation time: 1 hr 8 min 16 sec) 
Heartbeat CPU 0 instructions: 540000002 cycles: 215059434 heartbeat IPC: 1.03106 cumulative IPC: 0.968464 (Simulation time: 1 hr 9 min 42 sec) 
Heartbeat CPU 0 instructions: 550000000 cycles: 225194165 heartbeat IPC: 0.986706 cumulative IPC: 0.972058 (Simulation time: 1 hr 11 min 22 sec) 
Heartbeat CPU 0 instructions: 560000000 cycles: 234770221 heartbeat IPC: 1.04427 cumulative IPC: 0.983392 (Simulation time: 1 hr 12 min 31 sec) 
Heartbeat CPU 0 instructions: 570000001 cycles: 244309796 heartbeat IPC: 1.04826 cumulative IPC: 0.992164 (Simulation time: 1 hr 13 min 56 sec) 
Heartbeat CPU 0 instructions: 580000003 cycles: 253073376 heartbeat IPC: 1.14109 cumulative IPC: 1.00862 (Simulation time: 1 hr 15 min 33 sec) 
Heartbeat CPU 0 instructions: 590000003 cycles: 262713785 heartbeat IPC: 1.0373 cumulative IPC: 1.01173 (Simulation time: 1 hr 17 min 13 sec) 
Heartbeat CPU 0 instructions: 600000000 cycles: 271379837 heartbeat IPC: 1.15393 cumulative IPC: 1.02435 (Simulation time: 1 hr 18 min 22 sec) 
Heartbeat CPU 0 instructions: 610000001 cycles: 279688790 heartbeat IPC: 1.20352 cumulative IPC: 1.0384 (Simulation time: 1 hr 19 min 12 sec) 
Heartbeat CPU 0 instructions: 620000000 cycles: 288184146 heartbeat IPC: 1.17711 cumulative IPC: 1.0487 (Simulation time: 1 hr 20 min 3 sec) 
Heartbeat CPU 0 instructions: 630000004 cycles: 297993990 heartbeat IPC: 1.01938 cumulative IPC: 1.04639 (Simulation time: 1 hr 20 min 58 sec) 
Heartbeat CPU 0 instructions: 640000000 cycles: 306939594 heartbeat IPC: 1.11787 cumulative IPC: 1.05119 (Simulation time: 1 hr 21 min 49 sec) 
Heartbeat CPU 0 instructions: 650000001 cycles: 315984958 heartbeat IPC: 1.10554 cumulative IPC: 1.05464 (Simulation time: 1 hr 23 min 24 sec) 
Heartbeat CPU 0 instructions: 660000000 cycles: 326317634 heartbeat IPC: 0.967803 cumulative IPC: 1.04876 (Simulation time: 1 hr 24 min 31 sec) 
Heartbeat CPU 0 instructions: 670000003 cycles: 335786605 heartbeat IPC: 1.05608 cumulative IPC: 1.04919 (Simulation time: 1 hr 25 min 24 sec) 
Heartbeat CPU 0 instructions: 680000004 cycles: 345402110 heartbeat IPC: 1.03999 cumulative IPC: 1.04867 (Simulation time: 1 hr 26 min 16 sec) 
Heartbeat CPU 0 instructions: 690000000 cycles: 354314539 heartbeat IPC: 1.12203 cumulative IPC: 1.0523 (Simulation time: 1 hr 27 min 6 sec) 
Heartbeat CPU 0 instructions: 700000003 cycles: 363429285 heartbeat IPC: 1.09712 cumulative IPC: 1.05445 (Simulation time: 1 hr 27 min 56 sec) 
Heartbeat CPU 0 instructions: 710000001 cycles: 372256434 heartbeat IPC: 1.13287 cumulative IPC: 1.05794 (Simulation time: 1 hr 28 min 46 sec) 
Heartbeat CPU 0 instructions: 720000001 cycles: 381982522 heartbeat IPC: 1.02816 cumulative IPC: 1.05655 (Simulation time: 1 hr 29 min 40 sec) 
Heartbeat CPU 0 instructions: 730000002 cycles: 391961654 heartbeat IPC: 1.00209 cumulative IPC: 1.05406 (Simulation time: 1 hr 30 min 32 sec) 
Heartbeat CPU 0 instructions: 740000002 cycles: 401214023 heartbeat IPC: 1.0808 cumulative IPC: 1.05514 (Simulation time: 1 hr 32 min 1 sec) 
Heartbeat CPU 0 instructions: 750000001 cycles: 411158985 heartbeat IPC: 1.00553 cumulative IPC: 1.05307 (Simulation time: 1 hr 32 min 54 sec) 
Heartbeat CPU 0 instructions: 760000000 cycles: 427505092 heartbeat IPC: 0.611766 cumulative IPC: 1.02464 (Simulation time: 1 hr 33 min 55 sec) 
Heartbeat CPU 0 instructions: 770000000 cycles: 438707705 heartbeat IPC: 0.892649 cumulative IPC: 1.01906 (Simulation time: 1 hr 34 min 46 sec) 
Heartbeat CPU 0 instructions: 780000001 cycles: 450006587 heartbeat IPC: 0.885043 cumulative IPC: 1.01358 (Simulation time: 1 hr 35 min 37 sec) 
Heartbeat CPU 0 instructions: 790000004 cycles: 461113263 heartbeat IPC: 0.90036 cumulative IPC: 1.0092 (Simulation time: 1 hr 36 min 30 sec) 
Heartbeat CPU 0 instructions: 800000002 cycles: 472179873 heartbeat IPC: 0.903619 cumulative IPC: 1.00528 (Simulation time: 1 hr 37 min 21 sec) 
Heartbeat CPU 0 instructions: 810000001 cycles: 483398504 heartbeat IPC: 0.891374 cumulative IPC: 1.00116 (Simulation time: 1 hr 38 min 14 sec) 
Heartbeat CPU 0 instructions: 820000004 cycles: 494369129 heartbeat IPC: 0.911525 cumulative IPC: 0.998091 (Simulation time: 1 hr 39 min 5 sec) 
Heartbeat CPU 0 instructions: 830000004 cycles: 505548658 heartbeat IPC: 0.894492 cumulative IPC: 0.9946 (Simulation time: 1 hr 39 min 55 sec) 
Heartbeat CPU 0 instructions: 840000001 cycles: 516822463 heartbeat IPC: 0.887012 cumulative IPC: 0.991064 (Simulation time: 1 hr 40 min 48 sec) 
Heartbeat CPU 0 instructions: 850000001 cycles: 528027399 heartbeat IPC: 0.892464 cumulative IPC: 0.987946 (Simulation time: 1 hr 41 min 40 sec) 
Heartbeat CPU 0 instructions: 860000001 cycles: 539162509 heartbeat IPC: 0.89806 cumulative IPC: 0.985207 (Simulation time: 1 hr 42 min 32 sec) 
Heartbeat CPU 0 instructions: 870000001 cycles: 550269324 heartbeat IPC: 0.900348 cumulative IPC: 0.982703 (Simulation time: 1 hr 43 min 21 sec) 
Heartbeat CPU 0 instructions: 880000001 cycles: 561596046 heartbeat IPC: 0.882868 cumulative IPC: 0.979788 (Simulation time: 1 hr 44 min 32 sec) 
Heartbeat CPU 0 instructions: 890000001 cycles: 572916635 heartbeat IPC: 0.883346 cumulative IPC: 0.977053 (Simulation time: 1 hr 45 min 43 sec) 
Heartbeat CPU 0 instructions: 900000002 cycles: 584423358 heartbeat IPC: 0.869057 cumulative IPC: 0.974027 (Simulation time: 1 hr 46 min 32 sec) 
Heartbeat CPU 0 instructions: 910000001 cycles: 595742968 heartbeat IPC: 0.883423 cumulative IPC: 0.971596 (Simulation time: 1 hr 47 min 20 sec) 
Heartbeat CPU 0 instructions: 920000000 cycles: 607149151 heartbeat IPC: 0.876717 cumulative IPC: 0.969099 (Simulation time: 1 hr 48 min 8 sec) 
Heartbeat CPU 0 instructions: 930000003 cycles: 618563505 heartbeat IPC: 0.87609 cumulative IPC: 0.966712 (Simulation time: 1 hr 48 min 57 sec) 
Heartbeat CPU 0 instructions: 940000000 cycles: 629815687 heartbeat IPC: 0.888716 cumulative IPC: 0.964788 (Simulation time: 1 hr 49 min 46 sec) 
Heartbeat CPU 0 instructions: 950000000 cycles: 641134276 heartbeat IPC: 0.883502 cumulative IPC: 0.962819 (Simulation time: 1 hr 51 min 2 sec) 
Heartbeat CPU 0 instructions: 960000004 cycles: 652576723 heartbeat IPC: 0.873939 cumulative IPC: 0.960695 (Simulation time: 1 hr 52 min 7 sec) 
Heartbeat CPU 0 instructions: 970000002 cycles: 663961404 heartbeat IPC: 0.878373 cumulative IPC: 0.958784 (Simulation time: 1 hr 53 min 17 sec) 
Heartbeat CPU 0 instructions: 980000001 cycles: 675417130 heartbeat IPC: 0.872926 cumulative IPC: 0.956823 (Simulation time: 1 hr 54 min 6 sec) 
Heartbeat CPU 0 instructions: 990000000 cycles: 686855563 heartbeat IPC: 0.874246 cumulative IPC: 0.954982 (Simulation time: 1 hr 54 min 55 sec) 
Heartbeat CPU 0 instructions: 1000000000 cycles: 698120111 heartbeat IPC: 0.887741 cumulative IPC: 0.953538 (Simulation time: 1 hr 55 min 43 sec) 
Heartbeat CPU 0 instructions: 1010000003 cycles: 709553904 heartbeat IPC: 0.874601 cumulative IPC: 0.951853 (Simulation time: 1 hr 56 min 32 sec) 
Heartbeat CPU 0 instructions: 1020000000 cycles: 721052654 heartbeat IPC: 0.869659 cumulative IPC: 0.950126 (Simulation time: 1 hr 57 min 21 sec) 
Heartbeat CPU 0 instructions: 1030000002 cycles: 732506817 heartbeat IPC: 0.873045 cumulative IPC: 0.948546 (Simulation time: 1 hr 58 min 10 sec) 
Heartbeat CPU 0 instructions: 1040000002 cycles: 743732633 heartbeat IPC: 0.890804 cumulative IPC: 0.947409 (Simulation time: 1 hr 58 min 59 sec) 
Heartbeat CPU 0 instructions: 1050000001 cycles: 755041577 heartbeat IPC: 0.884256 cumulative IPC: 0.94618 (Simulation time: 1 hr 59 min 47 sec) 
Heartbeat CPU 0 instructions: 1060000004 cycles: 766380320 heartbeat IPC: 0.881932 cumulative IPC: 0.944951 (Simulation time: 2 hr 0 min 37 sec) 
Heartbeat CPU 0 instructions: 1070000001 cycles: 778132897 heartbeat IPC: 0.850877 cumulative IPC: 0.943122 (Simulation time: 2 hr 1 min 26 sec) 
Heartbeat CPU 0 instructions: 1080000000 cycles: 789524825 heartbeat IPC: 0.877814 cumulative IPC: 0.941913 (Simulation time: 2 hr 2 min 14 sec) 
Heartbeat CPU 0 instructions: 1090000004 cycles: 801100598 heartbeat IPC: 0.863874 cumulative IPC: 0.940473 (Simulation time: 2 hr 3 min 3 sec) 
Heartbeat CPU 0 instructions: 1100000000 cycles: 812764981 heartbeat IPC: 0.85731 cumulative IPC: 0.938955 (Simulation time: 2 hr 3 min 52 sec) 
Heartbeat CPU 0 instructions: 1110000004 cycles: 824365479 heartbeat IPC: 0.862032 cumulative IPC: 0.937584 (Simulation time: 2 hr 4 min 40 sec) 
Heartbeat CPU 0 instructions: 1120000002 cycles: 835790705 heartbeat IPC: 0.875256 cumulative IPC: 0.936508 (Simulation time: 2 hr 5 min 28 sec) 
Heartbeat CPU 0 instructions: 1130000003 cycles: 847530548 heartbeat IPC: 0.8518 cumulative IPC: 0.935032 (Simulation time: 2 hr 6 min 16 sec) 
Heartbeat CPU 0 instructions: 1140000003 cycles: 859197571 heartbeat IPC: 0.857117 cumulative IPC: 0.933706 (Simulation time: 2 hr 7 min 5 sec) 
Heartbeat CPU 0 instructions: 1150000001 cycles: 870802194 heartbeat IPC: 0.861725 cumulative IPC: 0.932508 (Simulation time: 2 hr 7 min 52 sec) 
Heartbeat CPU 0 instructions: 1160000000 cycles: 882442439 heartbeat IPC: 0.859088 cumulative IPC: 0.931302 (Simulation time: 2 hr 8 min 41 sec) 
Heartbeat CPU 0 instructions: 1170000000 cycles: 893948942 heartbeat IPC: 0.869074 cumulative IPC: 0.930307 (Simulation time: 2 hr 9 min 29 sec) 
Heartbeat CPU 0 instructions: 1180000001 cycles: 905428169 heartbeat IPC: 0.871139 cumulative IPC: 0.929379 (Simulation time: 2 hr 10 min 50 sec) 
Heartbeat CPU 0 instructions: 1190000000 cycles: 916798558 heartbeat IPC: 0.879477 cumulative IPC: 0.928616 (Simulation time: 2 hr 11 min 44 sec) 
Heartbeat CPU 0 instructions: 1200000001 cycles: 928345732 heartbeat IPC: 0.866013 cumulative IPC: 0.927658 (Simulation time: 2 hr 12 min 32 sec) 
Heartbeat CPU 0 instructions: 1210000003 cycles: 939843888 heartbeat IPC: 0.869705 cumulative IPC: 0.926788 (Simulation time: 2 hr 13 min 21 sec) 
Heartbeat CPU 0 instructions: 1220000004 cycles: 951429286 heartbeat IPC: 0.863156 cumulative IPC: 0.92584 (Simulation time: 2 hr 14 min 10 sec) 
Heartbeat CPU 0 instructions: 1230000000 cycles: 963074338 heartbeat IPC: 0.858733 cumulative IPC: 0.92485 (Simulation time: 2 hr 14 min 58 sec) 
Heartbeat CPU 0 instructions: 1240000001 cycles: 974762584 heartbeat IPC: 0.85556 cumulative IPC: 0.923839 (Simulation time: 2 hr 15 min 47 sec) 
Heartbeat CPU 0 instructions: 1250000001 cycles: 986247810 heartbeat IPC: 0.870684 cumulative IPC: 0.923087 (Simulation time: 2 hr 16 min 36 sec) 
Heartbeat CPU 0 instructions: 1260000003 cycles: 997779258 heartbeat IPC: 0.867194 cumulative IPC: 0.922305 (Simulation time: 2 hr 17 min 29 sec) 
Heartbeat CPU 0 instructions: 1270000001 cycles: 1009383262 heartbeat IPC: 0.861771 cumulative IPC: 0.921465 (Simulation time: 2 hr 18 min 17 sec) 
Heartbeat CPU 0 instructions: 1280000002 cycles: 1021064522 heartbeat IPC: 0.856072 cumulative IPC: 0.920563 (Simulation time: 2 hr 19 min 6 sec) 
Heartbeat CPU 0 instructions: 1290000000 cycles: 1032586423 heartbeat IPC: 0.867912 cumulative IPC: 0.919857 (Simulation time: 2 hr 19 min 53 sec) 
Heartbeat CPU 0 instructions: 1300000004 cycles: 1044051620 heartbeat IPC: 0.872205 cumulative IPC: 0.919229 (Simulation time: 2 hr 20 min 42 sec) 
Heartbeat CPU 0 instructions: 1310000001 cycles: 1055581954 heartbeat IPC: 0.867277 cumulative IPC: 0.91855 (Simulation time: 2 hr 21 min 30 sec) 
Heartbeat CPU 0 instructions: 1320000003 cycles: 1067205444 heartbeat IPC: 0.860327 cumulative IPC: 0.917792 (Simulation time: 2 hr 22 min 19 sec) 
Heartbeat CPU 0 instructions: 1330000001 cycles: 1078957490 heartbeat IPC: 0.850915 cumulative IPC: 0.916924 (Simulation time: 2 hr 23 min 9 sec) 
Heartbeat CPU 0 instructions: 1340000003 cycles: 1090803723 heartbeat IPC: 0.84415 cumulative IPC: 0.915984 (Simulation time: 2 hr 23 min 57 sec) 
Heartbeat CPU 0 instructions: 1350000001 cycles: 1102618558 heartbeat IPC: 0.846393 cumulative IPC: 0.915099 (Simulation time: 2 hr 24 min 50 sec) 
Heartbeat CPU 0 instructions: 1360000003 cycles: 1114261683 heartbeat IPC: 0.858876 cumulative IPC: 0.914403 (Simulation time: 2 hr 26 min 14 sec) 
Heartbeat CPU 0 instructions: 1370000003 cycles: 1125920717 heartbeat IPC: 0.857704 cumulative IPC: 0.913708 (Simulation time: 2 hr 27 min 33 sec) 
Heartbeat CPU 0 instructions: 1380000001 cycles: 1137672904 heartbeat IPC: 0.850905 cumulative IPC: 0.912943 (Simulation time: 2 hr 29 min 0 sec) 
Heartbeat CPU 0 instructions: 1390000000 cycles: 1149337341 heartbeat IPC: 0.857307 cumulative IPC: 0.912277 (Simulation time: 2 hr 30 min 15 sec) 
Heartbeat CPU 0 instructions: 1400000003 cycles: 1161038610 heartbeat IPC: 0.854608 cumulative IPC: 0.911594 (Simulation time: 2 hr 31 min 31 sec) 
Heartbeat CPU 0 instructions: 1410000002 cycles: 1172713928 heartbeat IPC: 0.856508 cumulative IPC: 0.91095 (Simulation time: 2 hr 32 min 56 sec) 
Heartbeat CPU 0 instructions: 1420000001 cycles: 1184392138 heartbeat IPC: 0.856296 cumulative IPC: 0.910319 (Simulation time: 2 hr 34 min 23 sec) 
Heartbeat CPU 0 instructions: 1430000001 cycles: 1196132853 heartbeat IPC: 0.851737 cumulative IPC: 0.909646 (Simulation time: 2 hr 35 min 37 sec) 
Heartbeat CPU 0 instructions: 1440000002 cycles: 1207795550 heartbeat IPC: 0.857435 cumulative IPC: 0.909057 (Simulation time: 2 hr 36 min 25 sec) 
Heartbeat CPU 0 instructions: 1450000001 cycles: 1219531829 heartbeat IPC: 0.852059 cumulative IPC: 0.908417 (Simulation time: 2 hr 37 min 12 sec) 
Heartbeat CPU 0 instructions: 1460000003 cycles: 1231347973 heartbeat IPC: 0.8463 cumulative IPC: 0.907723 (Simulation time: 2 hr 38 min 0 sec) 
Heartbeat CPU 0 instructions: 1470000000 cycles: 1243014398 heartbeat IPC: 0.85716 cumulative IPC: 0.907172 (Simulation time: 2 hr 38 min 58 sec) 
Heartbeat CPU 0 instructions: 1480000001 cycles: 1254710879 heartbeat IPC: 0.854958 cumulative IPC: 0.906607 (Simulation time: 2 hr 40 min 26 sec) 
Heartbeat CPU 0 instructions: 1490000004 cycles: 1266536347 heartbeat IPC: 0.845633 cumulative IPC: 0.905947 (Simulation time: 2 hr 41 min 39 sec) 
Heartbeat CPU 0 instructions: 1500000000 cycles: 1278400081 heartbeat IPC: 0.842905 cumulative IPC: 0.90527 (Simulation time: 2 hr 42 min 49 sec) 
Heartbeat CPU 0 instructions: 1510000000 cycles: 1290170126 heartbeat IPC: 0.849614 cumulative IPC: 0.904683 (Simulation time: 2 hr 43 min 52 sec) 
Heartbeat CPU 0 instructions: 1520000001 cycles: 1301975867 heartbeat IPC: 0.847046 cumulative IPC: 0.90408 (Simulation time: 2 hr 44 min 40 sec) 
Heartbeat CPU 0 instructions: 1530000001 cycles: 1313890621 heartbeat IPC: 0.839296 cumulative IPC: 0.903403 (Simulation time: 2 hr 45 min 36 sec) 
Heartbeat CPU 0 instructions: 1540000001 cycles: 1325700171 heartbeat IPC: 0.846772 cumulative IPC: 0.902822 (Simulation time: 2 hr 46 min 32 sec) 
Heartbeat CPU 0 instructions: 1550000004 cycles: 1337341570 heartbeat IPC: 0.859004 cumulative IPC: 0.902384 (Simulation time: 2 hr 47 min 48 sec) 
Heartbeat CPU 0 instructions: 1560000002 cycles: 1349194203 heartbeat IPC: 0.843694 cumulative IPC: 0.901792 (Simulation time: 2 hr 49 min 0 sec) 
Heartbeat CPU 0 instructions: 1570000000 cycles: 1360818367 heartbeat IPC: 0.860277 cumulative IPC: 0.901385 (Simulation time: 2 hr 49 min 47 sec) 
Heartbeat CPU 0 instructions: 1580000000 cycles: 1372517541 heartbeat IPC: 0.854761 cumulative IPC: 0.90093 (Simulation time: 2 hr 50 min 35 sec) 
Heartbeat CPU 0 instructions: 1590000000 cycles: 1384293997 heartbeat IPC: 0.849152 cumulative IPC: 0.900427 (Simulation time: 2 hr 51 min 32 sec) 
Heartbeat CPU 0 instructions: 1600000002 cycles: 1395885300 heartbeat IPC: 0.862716 cumulative IPC: 0.900069 (Simulation time: 2 hr 52 min 19 sec) 
Heartbeat CPU 0 instructions: 1610000001 cycles: 1407570168 heartbeat IPC: 0.855808 cumulative IPC: 0.89965 (Simulation time: 2 hr 53 min 9 sec) 
Heartbeat CPU 0 instructions: 1620000001 cycles: 1419341837 heartbeat IPC: 0.849497 cumulative IPC: 0.899176 (Simulation time: 2 hr 54 min 7 sec) 
Heartbeat CPU 0 instructions: 1630000002 cycles: 1431482486 heartbeat IPC: 0.823679 cumulative IPC: 0.898447 (Simulation time: 2 hr 55 min 3 sec) 
Heartbeat CPU 0 instructions: 1640000001 cycles: 1443421475 heartbeat IPC: 0.837592 cumulative IPC: 0.897875 (Simulation time: 2 hr 55 min 53 sec) 
Heartbeat CPU 0 instructions: 1650000000 cycles: 1455239828 heartbeat IPC: 0.846142 cumulative IPC: 0.897398 (Simulation time: 2 hr 56 min 41 sec) 
Heartbeat CPU 0 instructions: 1660000002 cycles: 1467066967 heartbeat IPC: 0.845513 cumulative IPC: 0.896923 (Simulation time: 2 hr 57 min 28 sec) 
Heartbeat CPU 0 instructions: 1670000001 cycles: 1478831422 heartbeat IPC: 0.850018 cumulative IPC: 0.896501 (Simulation time: 2 hr 58 min 17 sec) 
Heartbeat CPU 0 instructions: 1680000004 cycles: 1490739244 heartbeat IPC: 0.839784 cumulative IPC: 0.895988 (Simulation time: 2 hr 59 min 6 sec) 
Heartbeat CPU 0 instructions: 1690000003 cycles: 1502643950 heartbeat IPC: 0.840004 cumulative IPC: 0.895486 (Simulation time: 2 hr 59 min 55 sec) 
Heartbeat CPU 0 instructions: 1700000000 cycles: 1514455762 heartbeat IPC: 0.84661 cumulative IPC: 0.895056 (Simulation time: 3 hr 0 min 42 sec) 
Heartbeat CPU 0 instructions: 1710000000 cycles: 1526276204 heartbeat IPC: 0.845992 cumulative IPC: 0.894627 (Simulation time: 3 hr 1 min 30 sec) 
Heartbeat CPU 0 instructions: 1720000000 cycles: 1538064388 heartbeat IPC: 0.848307 cumulative IPC: 0.894227 (Simulation time: 3 hr 2 min 27 sec) 
Heartbeat CPU 0 instructions: 1730000001 cycles: 1549883650 heartbeat IPC: 0.846077 cumulative IPC: 0.893813 (Simulation time: 3 hr 3 min 16 sec) 
Heartbeat CPU 0 instructions: 1740000000 cycles: 1561854289 heartbeat IPC: 0.835377 cumulative IPC: 0.893309 (Simulation time: 3 hr 4 min 5 sec) 
Heartbeat CPU 0 instructions: 1750000002 cycles: 1573685884 heartbeat IPC: 0.845195 cumulative IPC: 0.892902 (Simulation time: 3 hr 4 min 53 sec) 
Heartbeat CPU 0 instructions: 1760000004 cycles: 1585516621 heartbeat IPC: 0.845256 cumulative IPC: 0.892503 (Simulation time: 3 hr 5 min 43 sec) 
Heartbeat CPU 0 instructions: 1770000001 cycles: 1597535606 heartbeat IPC: 0.832017 cumulative IPC: 0.891993 (Simulation time: 3 hr 6 min 31 sec) 
Heartbeat CPU 0 instructions: 1780000001 cycles: 1609406198 heartbeat IPC: 0.842418 cumulative IPC: 0.891583 (Simulation time: 3 hr 7 min 18 sec) 
Heartbeat CPU 0 instructions: 1790000002 cycles: 1621586747 heartbeat IPC: 0.820981 cumulative IPC: 0.890989 (Simulation time: 3 hr 8 min 5 sec) 
Heartbeat CPU 0 instructions: 1800000000 cycles: 1633635571 heartbeat IPC: 0.829956 cumulative IPC: 0.890485 (Simulation time: 3 hr 8 min 54 sec) 
Heartbeat CPU 0 instructions: 1810000001 cycles: 1645537202 heartbeat IPC: 0.840221 cumulative IPC: 0.890078 (Simulation time: 3 hr 9 min 41 sec) 
Heartbeat CPU 0 instructions: 1820000000 cycles: 1657262820 heartbeat IPC: 0.852833 cumulative IPC: 0.889784 (Simulation time: 3 hr 10 min 28 sec) 
Heartbeat CPU 0 instructions: 1830000002 cycles: 1668990614 heartbeat IPC: 0.852675 cumulative IPC: 0.889493 (Simulation time: 3 hr 11 min 16 sec) 
Heartbeat CPU 0 instructions: 1840000002 cycles: 1680796773 heartbeat IPC: 0.847016 cumulative IPC: 0.88916 (Simulation time: 3 hr 12 min 3 sec) 
Heartbeat CPU 0 instructions: 1850000002 cycles: 1692497707 heartbeat IPC: 0.854633 cumulative IPC: 0.888894 (Simulation time: 3 hr 12 min 51 sec) 
Heartbeat CPU 0 instructions: 1860000004 cycles: 1704322255 heartbeat IPC: 0.845698 cumulative IPC: 0.888561 (Simulation time: 3 hr 13 min 38 sec) 
Heartbeat CPU 0 instructions: 1870000002 cycles: 1716211171 heartbeat IPC: 0.841119 cumulative IPC: 0.888195 (Simulation time: 3 hr 14 min 26 sec) 
Heartbeat CPU 0 instructions: 1880000002 cycles: 1728018096 heartbeat IPC: 0.846961 cumulative IPC: 0.887882 (Simulation time: 3 hr 15 min 14 sec) 
Heartbeat CPU 0 instructions: 1890000002 cycles: 1739740393 heartbeat IPC: 0.853075 cumulative IPC: 0.887621 (Simulation time: 3 hr 16 min 1 sec) 
Heartbeat CPU 0 instructions: 1900000001 cycles: 1751559816 heartbeat IPC: 0.846065 cumulative IPC: 0.88731 (Simulation time: 3 hr 16 min 54 sec) 
Heartbeat CPU 0 instructions: 1910000000 cycles: 1763395142 heartbeat IPC: 0.844928 cumulative IPC: 0.886994 (Simulation time: 3 hr 17 min 42 sec) 
Heartbeat CPU 0 instructions: 1920000001 cycles: 1775082085 heartbeat IPC: 0.855656 cumulative IPC: 0.886766 (Simulation time: 3 hr 18 min 28 sec) 
Heartbeat CPU 0 instructions: 1930000001 cycles: 1786965472 heartbeat IPC: 0.841511 cumulative IPC: 0.886432 (Simulation time: 3 hr 19 min 16 sec) 
Heartbeat CPU 0 instructions: 1940000002 cycles: 1798727993 heartbeat IPC: 0.850158 cumulative IPC: 0.88617 (Simulation time: 3 hr 20 min 4 sec) 
Heartbeat CPU 0 instructions: 1950000002 cycles: 1810634243 heartbeat IPC: 0.839895 cumulative IPC: 0.885833 (Simulation time: 3 hr 20 min 50 sec) 
Heartbeat CPU 0 instructions: 1960000000 cycles: 1822589166 heartbeat IPC: 0.836475 cumulative IPC: 0.885475 (Simulation time: 3 hr 21 min 37 sec) 
Heartbeat CPU 0 instructions: 1970000000 cycles: 1834572585 heartbeat IPC: 0.834486 cumulative IPC: 0.885107 (Simulation time: 3 hr 22 min 25 sec) 
Heartbeat CPU 0 instructions: 1980000000 cycles: 1846448367 heartbeat IPC: 0.84205 cumulative IPC: 0.884802 (Simulation time: 3 hr 23 min 12 sec) 
Heartbeat CPU 0 instructions: 1990000001 cycles: 1858221364 heartbeat IPC: 0.849401 cumulative IPC: 0.884554 (Simulation time: 3 hr 23 min 59 sec) 
*** Reached end of trace: traces/605.mcf_s-1644B.champsimtrace.xz
Heartbeat CPU 0 instructions: 2000000000 cycles: 1870158747 heartbeat IPC: 0.837704 cumulative IPC: 0.884224 (Simulation time: 3 hr 24 min 46 sec) 
Finished CPU 0 instructions: 1500000001 cycles: 1696401839 cumulative IPC: 0.884224 (Simulation time: 3 hr 24 min 46 sec) 

ChampSim completed all CPUs

Region of Interest Statistics

CPU 0 cumulative IPC: 0.884224 instructions: 1500000001 cycles: 1696401839
cpu0_DTLB TOTAL     ACCESS:  419513115  HIT:  409390674  MISS:   10122441
cpu0_DTLB LOAD      ACCESS:  326621773  HIT:  318209890  MISS:    8411883
cpu0_DTLB RFO       ACCESS:   92891342  HIT:   91180784  MISS:    1710558
cpu0_DTLB PREFETCH  ACCESS:          0  HIT:          0  MISS:          0
cpu0_DTLB WRITEBACK ACCESS:          0  HIT:          0  MISS:          0
cpu0_DTLB TRANSLATION ACCESS:          0  HIT:          0  MISS:          0
cpu0_DTLB PREFETCH  REQUESTED:          0  ISSUED:          0  USEFUL:          0  USELESS:          0
cpu0_DTLB AVERAGE MISS LATENCY: 9.11002 cycles
cpu0_ITLB TOTAL     ACCESS:  170770621  HIT:  170770621  MISS:          0
cpu0_ITLB LOAD      ACCESS:  170770621  HIT:  170770621  MISS:          0
cpu0_ITLB RFO       ACCESS:          0  HIT:          0  MISS:          0
cpu0_ITLB PREFETCH  ACCESS:          0  HIT:          0  MISS:          0
cpu0_ITLB WRITEBACK ACCESS:          0  HIT:          0  MISS:          0
cpu0_ITLB TRANSLATION ACCESS:          0  HIT:          0  MISS:          0
cpu0_ITLB PREFETCH  REQUESTED:          0  ISSUED:          0  USEFUL:          0  USELESS:          0
cpu0_ITLB AVERAGE MISS LATENCY: -nan cycles
cpu0_L1I TOTAL     ACCESS:  122741223  HIT:  122741223  MISS:          0
cpu0_L1I LOAD      ACCESS:  122741223  HIT:  122741223  MISS:          0
cpu0_L1I RFO       ACCESS:          0  HIT:          0  MISS:          0
cpu0_L1I PREFETCH  ACCESS:          0  HIT:          0  MISS:          0
cpu0_L1I WRITEBACK ACCESS:          0  HIT:          0  MISS:          0
cpu0_L1I TRANSLATION ACCESS:          0  HIT:          0  MISS:          0
cpu0_L1I PREFETCH  REQUESTED:          0  ISSUED:          0  USEFUL:          0  USELESS:          0
cpu0_L1I AVERAGE MISS LATENCY: -nan cycles
cpu0_STLB TOTAL     ACCESS:   10122441  HIT:   10036557  MISS:      85884
cpu0_STLB LOAD      ACCESS:    8411883  HIT:    8327240  MISS:      84643
cpu0_STLB RFO       ACCESS:    1710558  HIT:    1709317  MISS:       1241
cpu0_STLB PREFETCH  ACCESS:          0  HIT:          0  MISS:          0
cpu0_STLB WRITEBACK ACCESS:          0  HIT:          0  MISS:          0
cpu0_STLB TRANSLATION ACCESS:          0  HIT:          0  MISS:          0
cpu0_STLB PREFETCH  REQUESTED:          0  ISSUED:          0  USEFUL:          0  USELESS:          0
cpu0_STLB AVERAGE MISS LATENCY: 11.7771 cycles
cpu0_L1D TOTAL     ACCESS:  542202165  HIT:  499546996  MISS:   42655169
cpu0_L1D LOAD      ACCESS:  392572051  HIT:  355399644  MISS:   37172407
cpu0_L1D RFO       ACCESS:  149544358  HIT:  144067183  MISS:    5477175
cpu0_L1D PREFETCH  ACCESS:          0  HIT:          0  MISS:          0
cpu0_L1D WRITEBACK ACCESS:          0  HIT:          0  MISS:          0
cpu0_L1D TRANSLATION ACCESS:      85756  HIT:      80169  MISS:       5587
cpu0_L1D PREFETCH  REQUESTED:          0  ISSUED:          0  USEFUL:          0  USELESS:          0
cpu0_L1D AVERAGE MISS LATENCY: 40.9294 cycles
cpu0_L2C TOTAL     ACCESS:   49609969  HIT:   32038001  MISS:   17571968
cpu0_L2C LOAD      ACCESS:   37171993  HIT:   21075167  MISS:   16096826
cpu0_L2C RFO       ACCESS:    5476723  HIT:    4008371  MISS:    1468352
cpu0_L2C PREFETCH  ACCESS:          0  HIT:          0  MISS:          0
cpu0_L2C WRITEBACK ACCESS:    6955666  HIT:    6953460  MISS:       2206
cpu0_L2C TRANSLATION ACCESS:       5587  HIT:       1003  MISS:       4584
cpu0_L2C PREFETCH  REQUESTED:          0  ISSUED:          0  USEFUL:          0  USELESS:          0
cpu0_L2C AVERAGE MISS LATENCY: 72.4994 cycles
LLC TOTAL     ACCESS:   20003474  HIT:   13817666  MISS:    6185808
LLC LOAD      ACCESS:   16096662  HIT:    9991094  MISS:    6105568
LLC RFO       ACCESS:    1468011  HIT:    1452362  MISS:      15649
LLC PREFETCH  ACCESS:          0  HIT:          0  MISS:          0
LLC WRITEBACK ACCESS:    2434217  HIT:    2370160  MISS:      64057
LLC TRANSLATION ACCESS:       4584  HIT:       4050  MISS:        534
LLC PREFETCH  REQUESTED:          0  ISSUED:          0  USEFUL:          0  USELESS:          0
LLC AVERAGE MISS LATENCY: 146.265 cycles
~~~~~~~~~~Reuse Distance Profiler output~~~~~~~~~~
0	48745904	19016016
1	51340624	24281200
2	48274368	28005056
3	47307440	30685088
4	42002544	30440832
5	39167776	28772960
6	33568880	25184144
7	27654144	19774000
8	22273728	17454208
9	20142800	15461504
10	18387056	13961920
11	15463376	11418848
12	13340624	9722176
13	12959088	8702576
14	12377184	7145920
15	12781872	7132896
16	10629328	5743568
17	8406624	4741872
18	6344544	4018896
19	4841136	3504736
20	4261568	3328304
21	3716864	2919808
22	3369392	2679680
23	3096304	2508048
24	2666512	2252048
25	2727424	2337728
26	2607120	2268368
27	2387440	2069344
28	2278144	1974096
29	2193568	1794400
30	2135088	1643888
31	1912064	1314432
32	1761504	1114176
33	1434016	878384
34	1270896	837648
35	1059504	755856
36	905776	720544
37	811872	676384
38	763120	660144
39	690464	596272
40	664864	541200
41	631280	505920
42	572784	481024
43	564368	468688
44	507280	420944
45	528352	400176
46	567488	410080
47	537968	375360
48	531712	368032
49	516608	359792
50	482704	344256
51	441280	326128
52	385888	311712
53	338688	289792
54	314256	283712
55	319216	294784
56	276928	258128
57	279456	262880
58	262736	243408
59	250400	223216
60	263728	218608
61	290496	214688
62	300528	192112
63	319712	179056
64	666304	326912
66	607888	319840
68	477168	306864
70	390256	316864
72	331840	300992
74	319152	292992
76	358368	277600
78	523328	253120
80	863824	251408
82	1148048	240928
84	1253264	246528
86	1156960	230208
88	1038400	222128
90	931312	227232
92	853232	226736
94	845248	218480
96	888480	220592
98	935408	226576
100	940464	227136
102	930416	236064
104	938464	231520
106	1014352	228992
108	1210288	225552
110	1447328	216688
112	1564176	205680
114	1601744	193632
116	1582192	194848
118	1477952	190592
120	1348096	194704
122	1180560	189728
124	983664	185104
126	788976	179984
128	1111168	364928
132	694448	370688
136	531328	405680
140	436272	388608
144	394480	367680
148	388608	362976
152	386288	359104
156	366096	339904
160	352864	326800
164	353984	327584
168	352432	324032
172	353696	326528
176	359168	331600
180	340688	315280
184	341840	316560
188	351888	325776
192	333472	306960
196	326608	300192
200	336016	309680
204	327088	300416
208	328064	301280
212	318592	292480
216	319632	293664
220	315760	290752
224	306416	281952
228	300384	274688
232	298720	274192
236	299280	274960
240	292240	268160
244	294720	271152
248	295888	272352
252	294192	270960
256	570496	522720
264	554144	504896
272	536624	490160
280	524304	479408
288	506736	464176
296	497920	454448
304	478880	438640
312	465296	426352
320	447728	410144
328	439280	398528
336	420736	382784
344	405264	369248
352	389376	355360
360	377536	344928
368	356448	325792
376	348208	318256
384	333856	306128
392	320976	293872
400	314384	289984
408	303168	277408
416	288720	263664
424	277360	252672
432	270256	246896
440	256608	234144
448	250112	228624
456	245840	226016
464	243760	223568
472	234144	214640
480	225456	206880
488	219232	201408
496	213984	196128
504	212736	195728
512	402928	369776
528	390224	357072
544	380928	349168
560	366400	335520
576	354752	325088
592	343104	313408
608	330128	301632
624	324864	294928
640	316624	287264
656	311984	283408
672	309952	281904
688	296128	267744
704	288320	261184
720	283264	256448
736	272240	247376
752	275568	250064
768	263808	238912
784	259040	234592
800	253376	229584
816	244304	221280
832	240000	218256
848	230272	209200
864	228032	206576
880	226464	204608
896	221120	200480
912	219536	197216
928	218864	197376
944	208928	189200
960	205552	184976
976	203520	184192
992	195680	176192
1008	199120	180592
1024	392048	353088
1056	378784	341264
1088	365696	328608
1120	355040	318880
1152	342896	306752
1184	334144	298896
1216	321904	287856
1248	311488	277936
1280	295808	263776
1312	296368	265008
1344	287600	257840
1376	278912	249072
1408	277008	248016
1440	270256	241968
1472	263648	235056
1504	255120	227776
1536	250992	222944
1568	247392	220208
1600	244400	217648
1632	238944	212096
1664	229984	204336
1696	234848	208608
1728	228704	202656
1760	223296	197184
1792	216816	190592
1824	211792	186400
1856	211616	185376
1888	207488	183072
1920	202192	179424
1952	200000	176688
1984	197488	173984
2016	191600	169904
2048	372400	330256
2112	363872	320640
2176	357120	313728
2240	339200	300496
2304	334272	293168
2368	335728	294720
2432	325120	285984
2496	318576	281120
2560	314176	278080
2624	308048	272032
2688	303600	266976
2752	302224	265680
2816	306672	271344
2880	297824	264144
2944	289888	256432
3008	284544	251856
3072	279664	248048
3136	275104	244560
3200	272928	241376
3264	257600	227632
3328	251152	221488
3392	242480	213232
3456	243264	213792
3520	232128	203360
3584	220912	194112
3648	216416	190144
3712	204592	178208
3776	200976	176192
3840	197424	172880
3904	195520	170944
3968	194768	169312
4032	186720	162448
4096	371792	322544
4224	365264	316624
4352	358752	311936
4480	344560	298192
4608	343200	297888
4736	338544	293904
4864	328272	285280
4992	328512	285504
5120	339488	296064
5248	341280	299104
5376	326592	284624
5504	313984	273328
5632	307456	267232
5760	296960	256672
5888	295232	255712
6016	293232	254224
6144	287536	248976
6272	281472	245184
6400	279632	244816
6528	275056	239600
6656	273536	239456
6784	267936	233472
6912	263648	230064
7040	259264	225600
7168	256912	224112
7296	247712	215136
7424	238448	204608
7552	229376	196048
7680	228784	197072
7808	220224	189040
7936	220192	189472
8064	218384	188128
8192	428368	370208
8448	411104	353440
8704	406112	349824
8960	394496	340464
9216	383760	330976
9472	374944	321376
9728	367168	316192
9984	363168	314656
10240	361584	313872
10496	341728	297040
10752	337424	292656
11008	350320	305952
11264	369056	325104
11520	370768	326528
11776	362544	319248
12032	335824	292704
12288	305280	266032
12544	289760	249440
12800	283360	245248
13056	278512	242400
13312	273936	239328
13568	270960	235200
13824	266976	233536
14080	271136	238848
14336	277744	246176
14592	280256	248720
14848	265952	235600
15104	256176	227152
15360	248256	219312
15616	236080	206880
15872	229344	201136
16128	221584	194560
16384	426704	376720
16896	408160	360816
17408	390880	344304
17920	375648	332800
18432	362800	323488
18944	356016	316592
19456	343824	307136
19968	338992	305456
20480	332944	299120
20992	322032	292000
21504	310432	282848
22016	302128	275152
22528	292624	268384
23040	301600	280560
23552	294144	273088
24064	240352	219984
24576	229904	210720
25088	219808	202928
25600	218896	203424
26112	224800	209120
26624	235392	219680
27136	244416	227632
27648	226304	212736
28160	218400	205568
28672	215536	203232
29184	211520	200416
29696	201392	191152
30208	200064	190272
30720	179808	170080
31232	175536	165936
31744	166256	157632
32256	161440	152272
32768	282880	264752
33792	293664	262624
34816	318528	245328
35840	392688	233920
36864	354592	236096
37888	248576	224032
38912	239792	217504
39936	242480	219760
40960	229152	207408
41984	213456	192832
43008	206208	186864
44032	193296	174640
45056	185248	166464
46080	185760	161520
47104	196480	165456
48128	202832	175360
49152	201376	175200
50176	202960	179440
51200	203216	181456
52224	214560	192256
53248	182144	167056
54272	168976	154048
55296	159296	144256
56320	162800	147760
57344	155616	137040
58368	148256	131984
59392	144976	130176
60416	142336	127728
61440	144384	129584
62464	140016	126160
63488	133584	119808
64512	132224	117712
65536	250592	224256
67584	257792	229648
69632	240752	214816
71680	232624	204720
73728	237808	209424
75776	232736	209488
77824	220560	198288
79872	217200	195664
81920	214912	192128
83968	205920	183440
86016	203424	182128
88064	196464	177840
90112	182400	164512
92160	186208	169040
94208	182880	165984
96256	175344	157280
98304	177488	159376
100352	170992	151296
102400	162592	142720
104448	161648	140272
106496	165952	145968
108544	156096	136176
110592	157072	137152
112640	153920	134032
114688	158528	140032
116736	185408	166656
118784	190928	172096
120832	194144	176464
122880	172576	155744
124928	158448	142416
126976	150272	133584
129024	143456	127360
131072	259040	226544
135168	258320	226672
139264	241248	209536
143360	221360	191072
147456	226432	195920
151552	215216	183088
155648	218976	188896
159744	209936	180736
163840	206880	178992
167936	283568	257952
172032	182144	155536
176128	161920	138304
180224	150608	127920
184320	161072	138688
188416	145024	117152
192512	140752	116496
196608	131136	109216
200704	133552	115680
204800	138224	124720
208896	129168	116944
212992	124480	113504
217088	124336	113056
221184	124992	112576
225280	123040	106672
229376	127744	107376
233472	120784	99184
237568	119744	99600
241664	126320	106176
245760	123760	104880
249856	123712	105904
253952	122016	107056
258048	135248	119840
262144	277664	247936
270336	287344	259232
278528	246112	218944
286720	222944	195840
294912	174592	150800
303104	180112	156576
311296	170960	149840
319488	168416	148368
327680	154368	137088
335872	161936	145904
344064	150752	133392
352256	148496	132720
360448	157648	145600
368640	148832	137936
376832	138800	128896
385024	125408	114784
393216	134528	124976
401408	120608	113040
409600	138480	131952
417792	127392	120768
425984	121024	113536
434176	95056	89280
442368	149792	142464
450560	131072	122256
458752	120336	112896
466944	103328	95856
475136	84656	77456
483328	89136	82320
491520	82016	73616
499712	126928	117264
507904	198944	190272
516096	394368	387728
524288	1789280	1771168
540672	1393424	1378128
557056	298288	282448
573440	48112	31536
589824	27392	14000
606208	25008	13088
622592	27872	13968
638976	30880	15648
655360	31568	17696
671744	36240	20816
688128	32528	17888
704512	27904	15968
720896	31200	16800
737280	31120	16608
753664	24256	12544
770048	25472	13856
786432	27120	12592
802816	26416	12512
819200	26528	13264
835584	26688	14160
851968	21008	9728
868352	22800	9552
884736	22496	9936
901120	19360	8592
917504	19536	8896
933888	23168	9936
950272	23584	9488
966656	21888	9040
983040	20768	8544
999424	24160	10944
1015808	26336	15024
1032192	46208	36928
1048576	286800	258224
1081344	232608	204640
1114112	63088	34288
1146880	36208	11760
1179648	32928	11296
1212416	35360	10800
1245184	27952	6752
1277952	30512	8576
1310720	31568	10256
1343488	34352	9520
1376256	28000	7424
1409024	28928	9232
1441792	27008	9440
1474560	26688	7872
1507328	26240	8160
1540096	35760	15120
1572864	100848	80784
1605632	159824	141440
1638400	81328	65136
1671168	30608	14112
1703936	22000	5888
1736704	17536	3664
1769472	18768	5312
1802240	19360	5200
1835008	21696	5280
1867776	19712	4928
1900544	19712	4544
1933312	18224	4496
1966080	18912	3952
1998848	16768	3728
2031616	16784	3680
2064384	22096	6384
2097152	132880	100768
2162688	115664	85936
2228224	37056	9568
2293760	34720	6128
2359296	37504	6576
2424832	37248	6320
2490368	34256	4384
2555904	34992	6848
2621440	79744	49488
2686976	99504	72560
2752512	46192	16096
2818048	33232	3680
2883584	32096	4464
2949120	29296	4208
3014656	30304	4384
3080192	30720	4016
3145728	49856	24256
3211264	76624	51696
3276800	49520	23440
3342336	29520	5808
3407872	30896	5200
3473408	28480	3856
3538944	28304	5008
3604480	29376	7312
3670016	38736	18064
3735552	64144	43600
3801088	50832	30944
3866624	29184	9392
3932160	24400	4736
3997696	24592	4592
4063232	26704	5392
4128768	23296	3936
4194304	75600	32256
4325376	72368	27584
4456448	51936	3792
4587520	49328	3392
4718592	69920	24832
4849664	70000	25520
4980736	46656	3392
5111808	43296	2768
5242880	49648	14352
5373952	59808	22864
5505024	41024	4016
5636096	41344	2848
5767168	46032	9584
5898240	54480	17888
6029312	34272	5824
6160384	34192	1968
6291456	37440	6464
6422528	48560	16864
6553600	36544	7152
6684672	30560	1856
6815744	33856	4976
6946816	40784	13392
7077888	36528	7600
7208960	30816	1952
7340032	28496	3744
7471104	36432	10752
7602176	33680	8080
7733248	25632	1856
7864320	31376	2720
7995392	37088	9680
8126464	30960	7472
8257536	23600	1728
8388608	50496	9952
8650752	42992	7968
8912896	41872	9312
9175040	38096	7472
9437184	35136	7392
9699328	35936	7920
9961472	33136	5760
10223616	34144	7920
10485760	31072	4928
10747904	35568	7568
11010048	31312	4128
11272192	27296	6224
11534336	23264	3920
11796480	26816	6096
12058624	24256	3840
12320768	23600	5472
12582912	19904	3344
12845056	20832	4896
13107200	18912	3232
13369344	22416	4912
13631488	18976	3712
13893632	18160	4912
14155776	20224	3792
14417920	19072	3472
14680064	17792	3616
14942208	18272	3312
15204352	17072	3872
15466496	16544	3392
15728640	15424	3088
15990784	15712	5408
16252928	14288	3024
16515072	15360	3648
16777216	28016	5536
17301504	34272	7408
17825792	25024	5072
18350080	26592	5280
18874368	24544	4768
19398656	23088	6176
19922944	19472	4448
20447232	17312	5536
20971520	15056	4096
21495808	17456	4944
22020096	19856	4464
22544384	18528	4432
23068672	18096	4064
23592960	18432	4704
24117248	17376	4496
24641536	15696	4064
25165824	15408	4672
25690112	13776	4144
26214400	15040	4352
26738688	13056	3648
27262976	15088	3888
27787264	15408	3808
28311552	14720	3552
28835840	11200	3520
29360128	10960	3296
29884416	12256	3744
30408704	10336	3504
30932992	11120	3312
31457280	10816	3600
31981568	11072	4112
32505856	10624	3536
33030144	10032	3312
33554432	17840	6848
34603008	15360	6176
35651584	18960	6368
36700160	21488	7456
37748736	21136	6672
38797312	19024	6672
39845888	19280	6352
40894464	19872	7408
41943040	22240	7616
42991616	22560	7136
44040192	30320	6320
45088768	38560	7504
46137344	48976	9328
47185920	48448	8096
48234496	57920	8480
49283072	64704	8912
50331648	71104	8880
51380224	46192	7632
52428800	45680	7264
53477376	47280	6752
54525952	54272	7888
55574528	52112	6448
56623104	58896	7264
57671680	60672	7024
58720256	61216	7312
59768832	58672	6816
60817408	58320	6912
61865984	55008	7232
62914560	60848	7168
63963136	58000	7888
65011712	56656	7440
66060288	65184	7440
67108864	115616	15104
69206016	115360	15328
71303168	117168	15488
73400320	120672	15520
75497472	119104	15328
77594624	114096	15824
79691776	109168	15360
81788928	113408	16800
83886080	115296	17392
85983232	110112	17184
88080384	122848	16992
90177536	113968	17616
92274688	120176	18064
94371840	115680	20352
96468992	127008	19328
98566144	128976	19552
100663296	108336	22000
102760448	52832	28704
104857600	30320	16304
106954752	24752	16064
109051904	22448	16672
111149056	21648	17360
113246208	21664	17984
115343360	21744	18032
117440512	20720	17936
119537664	20464	17264
121634816	21696	18320
123731968	21072	17712
125829120	20960	17504
127926272	21568	17712
130023424	21760	17920
132120576	23168	18320
134217728	54976	35376
138412032	66720	37216
142606336	70864	36432
146800640	91024	35808
150994944	80544	38368
155189248	41472	38800
159383552	37648	37584
163577856	39424	39408
167772160	36640	36640
171966464	35696	35696
176160768	35200	35184
180355072	35936	35920
184549376	33888	33840
188743680	34992	34944
192937984	33824	33792
197132288	33312	33312
201326592	33872	33872
205520896	32016	32016
209715200	31552	31536
213909504	31936	31936
218103808	31056	31056
222298112	31520	31520
226492416	30896	30880
230686720	31232	31200
234881024	31248	31248
239075328	30208	30176
243269632	30992	30944
247463936	30768	30752
251658240	30720	30720
255852544	30080	30080
260046848	28928	28912
264241152	29248	29232
268435456	58512	58480
276824064	60000	60000
285212672	58608	58592
293601280	60752	60704
301989888	59808	59792
310378496	60256	60224
318767104	62192	62128
327155712	61408	61392
335544320	60128	60080
343932928	58832	58784
352321536	60256	60240
360710144	60432	60368
369098752	60656	60640
377487360	61408	61392
385875968	59696	59696
394264576	58352	58320
402653184	60704	60704
411041792	61648	61648
419430400	61536	61520
427819008	59120	59024
436207616	60304	60256
444596224	61008	61008
452984832	60704	60688
461373440	60624	60544
469762048	58672	58672
478150656	60624	60608
486539264	60448	60432
494927872	57776	57760
503316480	59280	59280
511705088	58112	58080
520093696	59616	59616
528482304	58256	58256
536870912	118656	118624
553648128	116576	116576
570425344	99632	99632
587202560	84928	84928
603979776	71072	71072
620756992	56320	56320
637534208	43216	43216
654311424	32816	32816
671088640	23664	23664
687865856	13056	13056
704643072	4352	4352
721420288	16	16
738197504	0	0
754974720	0	0
771751936	0	0
788529152	0	0
805306368	0	0
822083584	0	0
838860800	0	0
855638016	0	0
872415232	0	0
889192448	0	0
905969664	0	0
922746880	0	0
939524096	0	0
956301312	0	0
973078528	0	0
989855744	0	0
1006632960	0	0
1023410176	0	0
1040187392	0	0
1056964608	0	0
1073741824	0	0
1107296256	0	0
1140850688	0	0
1174405120	0	0
1207959552	0	0
1241513984	0	0
1275068416	0	0
1308622848	0	0
1342177280	0	0
1375731712	0	0
1409286144	0	0
1442840576	0	0
1476395008	0	0
1509949440	0	0
1543503872	0	0
1577058304	0	0
1610612736	0	0
1644167168	0	0
1677721600	0	0
1711276032	0	0
1744830464	0	0
1778384896	0	0
1811939328	0	0
1845493760	0	0
1879048192	0	0
1912602624	0	0
1946157056	0	0
1979711488	0	0
2013265920	0	0
2046820352	0	0
2080374784	0	0
2113929216	0	0
2147483648	0	0
2214592512	0	0
2281701376	0	0
2348810240	0	0
2415919104	0	0
2483027968	0	0
2550136832	0	0
2617245696	0	0
2684354560	0	0
2751463424	0	0
2818572288	0	0
2885681152	0	0
2952790016	0	0
3019898880	0	0
3087007744	0	0
3154116608	0	0
3221225472	0	0
3288334336	0	0
3355443200	0	0
3422552064	0	0
3489660928	0	0
3556769792	0	0
3623878656	0	0
3690987520	0	0
3758096384	0	0
3825205248	0	0
3892314112	0	0
3959422976	0	0
4026531840	0	0
4093640704	0	0
4160749568	0	0
4227858432	0	0
~~~~~~~~~~Reuse Distance Profiler output end~~~~~~~~~~

DRAM Statistics
 CHANNEL 0
 RQ ROW_BUFFER_HIT:    2849630  ROW_BUFFER_MISS:    3265453
 DBUS AVG_CONGESTED_CYCLE:    3.74564
 WQ ROW_BUFFER_HIT:      33536  ROW_BUFFER_MISS:      84995  FULL:          0


CPU 0 Branch Prediction Accuracy: 94.2105% MPKI: 14.2978 Average ROB Occupancy at Mispredict: 25.9226
Branch type MPKI
BRANCH_DIRECT_JUMP: 1.33333e-06
BRANCH_INDIRECT: 0
BRANCH_CONDITIONAL: 14.2968
BRANCH_DIRECT_CALL: 2.66667e-06
BRANCH_INDIRECT_CALL: 0.000916
BRANCH_RETURN: 6.66667e-07

