
*** ChampSim Multicore Out-of-Order Simulator ***

Warmup Instructions: 500000000
Simulation Instructions: 1500000000
Number of CPUs: 1
Off-chip DRAM Size: 4 GiB Channels: 1 Width: 64-bit Data Rate: 3200 MT/s

VirtualMemory physical capacity: 8588881920 num_ppages: 2096895
VirtualMemory page size: 4096 log2_page_size: 12

CPU 0 runs traces/605.mcf_s-1152B.champsimtrace.xz
CPU 0 Bimodal branch predictor
Basic BTB sets: 1024 ways: 8 indirect buffer size: 4096 RAS size: 64
Initializing LRU.
Initializing LRU.
Initializing LRU.
Initializing LRU.
Initializing rdLRU.
Initializing LRU.
Initializing LRU.
Heartbeat CPU 0 instructions: 10000003 cycles: 2938032 heartbeat IPC: 3.40364 cumulative IPC: 3.40364 (Simulation time: 0 hr 1 min 9 sec) 
Heartbeat CPU 0 instructions: 20000002 cycles: 5886751 heartbeat IPC: 3.3913 cumulative IPC: 3.39746 (Simulation time: 0 hr 2 min 6 sec) 
Heartbeat CPU 0 instructions: 30000001 cycles: 8826342 heartbeat IPC: 3.40183 cumulative IPC: 3.39892 (Simulation time: 0 hr 2 min 53 sec) 
Heartbeat CPU 0 instructions: 40000000 cycles: 11773752 heartbeat IPC: 3.39281 cumulative IPC: 3.39739 (Simulation time: 0 hr 3 min 39 sec) 
Heartbeat CPU 0 instructions: 50000003 cycles: 14732936 heartbeat IPC: 3.37931 cumulative IPC: 3.39376 (Simulation time: 0 hr 4 min 33 sec) 
Heartbeat CPU 0 instructions: 60000001 cycles: 17690792 heartbeat IPC: 3.38083 cumulative IPC: 3.39159 (Simulation time: 0 hr 5 min 51 sec) 
Heartbeat CPU 0 instructions: 70000000 cycles: 20653752 heartbeat IPC: 3.375 cumulative IPC: 3.38921 (Simulation time: 0 hr 7 min 5 sec) 
Heartbeat CPU 0 instructions: 80000001 cycles: 23606054 heartbeat IPC: 3.38719 cumulative IPC: 3.38896 (Simulation time: 0 hr 8 min 13 sec) 
Heartbeat CPU 0 instructions: 90000001 cycles: 26564683 heartbeat IPC: 3.37994 cumulative IPC: 3.38796 (Simulation time: 0 hr 9 min 9 sec) 
Heartbeat CPU 0 instructions: 100000000 cycles: 29530320 heartbeat IPC: 3.37196 cumulative IPC: 3.38635 (Simulation time: 0 hr 10 min 7 sec) 
Heartbeat CPU 0 instructions: 110000000 cycles: 32502634 heartbeat IPC: 3.36438 cumulative IPC: 3.38434 (Simulation time: 0 hr 11 min 14 sec) 
Heartbeat CPU 0 instructions: 120000002 cycles: 35479308 heartbeat IPC: 3.35945 cumulative IPC: 3.38225 (Simulation time: 0 hr 12 min 28 sec) 
Heartbeat CPU 0 instructions: 130000004 cycles: 38463422 heartbeat IPC: 3.35108 cumulative IPC: 3.37983 (Simulation time: 0 hr 13 min 30 sec) 
Heartbeat CPU 0 instructions: 140000000 cycles: 41448985 heartbeat IPC: 3.34945 cumulative IPC: 3.37765 (Simulation time: 0 hr 14 min 14 sec) 
Heartbeat CPU 0 instructions: 150000001 cycles: 44471616 heartbeat IPC: 3.30838 cumulative IPC: 3.37294 (Simulation time: 0 hr 15 min 2 sec) 
Heartbeat CPU 0 instructions: 160000002 cycles: 47526939 heartbeat IPC: 3.27298 cumulative IPC: 3.36651 (Simulation time: 0 hr 15 min 51 sec) 
Heartbeat CPU 0 instructions: 170000004 cycles: 50610770 heartbeat IPC: 3.24272 cumulative IPC: 3.35897 (Simulation time: 0 hr 16 min 36 sec) 
Heartbeat CPU 0 instructions: 180000000 cycles: 53742172 heartbeat IPC: 3.19346 cumulative IPC: 3.34932 (Simulation time: 0 hr 17 min 22 sec) 
Heartbeat CPU 0 instructions: 190000000 cycles: 56853766 heartbeat IPC: 3.21379 cumulative IPC: 3.34191 (Simulation time: 0 hr 18 min 8 sec) 
Heartbeat CPU 0 instructions: 200000001 cycles: 59951570 heartbeat IPC: 3.22809 cumulative IPC: 3.33603 (Simulation time: 0 hr 18 min 53 sec) 
Heartbeat CPU 0 instructions: 210000004 cycles: 63014226 heartbeat IPC: 3.26514 cumulative IPC: 3.33258 (Simulation time: 0 hr 19 min 38 sec) 
Heartbeat CPU 0 instructions: 220000004 cycles: 66067278 heartbeat IPC: 3.27541 cumulative IPC: 3.32994 (Simulation time: 0 hr 20 min 23 sec) 
Heartbeat CPU 0 instructions: 230000002 cycles: 69118146 heartbeat IPC: 3.27776 cumulative IPC: 3.32764 (Simulation time: 0 hr 21 min 8 sec) 
Heartbeat CPU 0 instructions: 240000004 cycles: 72155333 heartbeat IPC: 3.29252 cumulative IPC: 3.32616 (Simulation time: 0 hr 21 min 53 sec) 
Heartbeat CPU 0 instructions: 250000001 cycles: 75169273 heartbeat IPC: 3.31792 cumulative IPC: 3.32583 (Simulation time: 0 hr 22 min 52 sec) 
Heartbeat CPU 0 instructions: 260000000 cycles: 78180384 heartbeat IPC: 3.32103 cumulative IPC: 3.32564 (Simulation time: 0 hr 23 min 38 sec) 
Heartbeat CPU 0 instructions: 270000001 cycles: 81193778 heartbeat IPC: 3.31852 cumulative IPC: 3.32538 (Simulation time: 0 hr 24 min 25 sec) 
Heartbeat CPU 0 instructions: 280000002 cycles: 84209817 heartbeat IPC: 3.31561 cumulative IPC: 3.32503 (Simulation time: 0 hr 25 min 18 sec) 
Heartbeat CPU 0 instructions: 290000003 cycles: 87225297 heartbeat IPC: 3.31622 cumulative IPC: 3.32472 (Simulation time: 0 hr 26 min 6 sec) 
Heartbeat CPU 0 instructions: 300000002 cycles: 90231532 heartbeat IPC: 3.32642 cumulative IPC: 3.32478 (Simulation time: 0 hr 26 min 55 sec) 
Heartbeat CPU 0 instructions: 310000001 cycles: 93251719 heartbeat IPC: 3.31105 cumulative IPC: 3.32434 (Simulation time: 0 hr 27 min 58 sec) 
Heartbeat CPU 0 instructions: 320000001 cycles: 96263892 heartbeat IPC: 3.31986 cumulative IPC: 3.3242 (Simulation time: 0 hr 28 min 46 sec) 
Heartbeat CPU 0 instructions: 330000003 cycles: 99276710 heartbeat IPC: 3.31915 cumulative IPC: 3.32404 (Simulation time: 0 hr 29 min 34 sec) 
Heartbeat CPU 0 instructions: 340000000 cycles: 102310844 heartbeat IPC: 3.29583 cumulative IPC: 3.32321 (Simulation time: 0 hr 30 min 26 sec) 
Heartbeat CPU 0 instructions: 350000001 cycles: 105344290 heartbeat IPC: 3.29658 cumulative IPC: 3.32244 (Simulation time: 0 hr 31 min 47 sec) 
Heartbeat CPU 0 instructions: 360000000 cycles: 108381234 heartbeat IPC: 3.29278 cumulative IPC: 3.32161 (Simulation time: 0 hr 32 min 53 sec) 
Heartbeat CPU 0 instructions: 370000004 cycles: 111420106 heartbeat IPC: 3.2907 cumulative IPC: 3.32077 (Simulation time: 0 hr 33 min 41 sec) 
Heartbeat CPU 0 instructions: 380000002 cycles: 114460367 heartbeat IPC: 3.28919 cumulative IPC: 3.31993 (Simulation time: 0 hr 34 min 27 sec) 
Heartbeat CPU 0 instructions: 390000004 cycles: 117504297 heartbeat IPC: 3.28523 cumulative IPC: 3.31903 (Simulation time: 0 hr 35 min 14 sec) 
Heartbeat CPU 0 instructions: 400000001 cycles: 120584913 heartbeat IPC: 3.2461 cumulative IPC: 3.31716 (Simulation time: 0 hr 36 min 1 sec) 
Heartbeat CPU 0 instructions: 410000001 cycles: 123634256 heartbeat IPC: 3.27939 cumulative IPC: 3.31623 (Simulation time: 0 hr 36 min 48 sec) 
Heartbeat CPU 0 instructions: 420000004 cycles: 126660240 heartbeat IPC: 3.30471 cumulative IPC: 3.31596 (Simulation time: 0 hr 37 min 37 sec) 
Heartbeat CPU 0 instructions: 430000001 cycles: 129728181 heartbeat IPC: 3.25951 cumulative IPC: 3.31462 (Simulation time: 0 hr 38 min 49 sec) 
Heartbeat CPU 0 instructions: 440000001 cycles: 132787503 heartbeat IPC: 3.2687 cumulative IPC: 3.31356 (Simulation time: 0 hr 39 min 37 sec) 
Heartbeat CPU 0 instructions: 450000001 cycles: 135847880 heartbeat IPC: 3.26757 cumulative IPC: 3.31253 (Simulation time: 0 hr 40 min 24 sec) 
Heartbeat CPU 0 instructions: 460000002 cycles: 138907076 heartbeat IPC: 3.26883 cumulative IPC: 3.31157 (Simulation time: 0 hr 41 min 44 sec) 
Heartbeat CPU 0 instructions: 470000002 cycles: 141971377 heartbeat IPC: 3.26339 cumulative IPC: 3.31053 (Simulation time: 0 hr 43 min 5 sec) 
Heartbeat CPU 0 instructions: 480000003 cycles: 145019887 heartbeat IPC: 3.28029 cumulative IPC: 3.30989 (Simulation time: 0 hr 44 min 24 sec) 
Heartbeat CPU 0 instructions: 490000000 cycles: 148063528 heartbeat IPC: 3.28554 cumulative IPC: 3.30939 (Simulation time: 0 hr 45 min 44 sec) 
Heartbeat CPU 0 instructions: 500000002 cycles: 151109894 heartbeat IPC: 3.2826 cumulative IPC: 3.30885 (Simulation time: 0 hr 47 min 3 sec) 

Warmup complete CPU 0 instructions: 500000002 cycles: 151109894 (Simulation time: 0 hr 47 min 3 sec) 

Heartbeat CPU 0 instructions: 510000000 cycles: 181607404 heartbeat IPC: 0.327896 cumulative IPC: 0.327896 (Simulation time: 0 hr 49 min 2 sec) 
Heartbeat CPU 0 instructions: 520000003 cycles: 210325052 heartbeat IPC: 0.348218 cumulative IPC: 0.337751 (Simulation time: 0 hr 50 min 38 sec) 
Heartbeat CPU 0 instructions: 530000001 cycles: 239309677 heartbeat IPC: 0.34501 cumulative IPC: 0.340137 (Simulation time: 0 hr 52 min 57 sec) 
Heartbeat CPU 0 instructions: 540000000 cycles: 267918432 heartbeat IPC: 0.349543 cumulative IPC: 0.342441 (Simulation time: 0 hr 54 min 40 sec) 
Heartbeat CPU 0 instructions: 550000001 cycles: 296629905 heartbeat IPC: 0.348293 cumulative IPC: 0.343595 (Simulation time: 0 hr 55 min 58 sec) 
Heartbeat CPU 0 instructions: 560000002 cycles: 324208437 heartbeat IPC: 0.362601 cumulative IPC: 0.346623 (Simulation time: 0 hr 57 min 12 sec) 
Heartbeat CPU 0 instructions: 570000002 cycles: 351927998 heartbeat IPC: 0.360756 cumulative IPC: 0.348574 (Simulation time: 0 hr 58 min 25 sec) 
Heartbeat CPU 0 instructions: 580000000 cycles: 388396386 heartbeat IPC: 0.27421 cumulative IPC: 0.337145 (Simulation time: 0 hr 59 min 48 sec) 
Heartbeat CPU 0 instructions: 590000000 cycles: 416290302 heartbeat IPC: 0.358501 cumulative IPC: 0.339392 (Simulation time: 1 hr 0 min 58 sec) 
Heartbeat CPU 0 instructions: 600000000 cycles: 443726505 heartbeat IPC: 0.364482 cumulative IPC: 0.341744 (Simulation time: 1 hr 2 min 6 sec) 
Heartbeat CPU 0 instructions: 610000000 cycles: 471060303 heartbeat IPC: 0.365847 cumulative IPC: 0.343803 (Simulation time: 1 hr 3 min 14 sec) 
Heartbeat CPU 0 instructions: 620000004 cycles: 498156688 heartbeat IPC: 0.369053 cumulative IPC: 0.345775 (Simulation time: 1 hr 4 min 22 sec) 
Heartbeat CPU 0 instructions: 630000002 cycles: 525464164 heartbeat IPC: 0.3662 cumulative IPC: 0.347265 (Simulation time: 1 hr 5 min 30 sec) 
Heartbeat CPU 0 instructions: 640000001 cycles: 552257564 heartbeat IPC: 0.373226 cumulative IPC: 0.348999 (Simulation time: 1 hr 6 min 37 sec) 
Heartbeat CPU 0 instructions: 650000000 cycles: 578989664 heartbeat IPC: 0.374082 cumulative IPC: 0.350566 (Simulation time: 1 hr 7 min 44 sec) 
Heartbeat CPU 0 instructions: 660000001 cycles: 606021181 heartbeat IPC: 0.369939 cumulative IPC: 0.351717 (Simulation time: 1 hr 8 min 49 sec) 
Heartbeat CPU 0 instructions: 670000001 cycles: 633209990 heartbeat IPC: 0.367798 cumulative IPC: 0.352624 (Simulation time: 1 hr 9 min 54 sec) 
Heartbeat CPU 0 instructions: 680000000 cycles: 660507599 heartbeat IPC: 0.366332 cumulative IPC: 0.353358 (Simulation time: 1 hr 11 min 0 sec) 
Heartbeat CPU 0 instructions: 690000003 cycles: 688069747 heartbeat IPC: 0.362817 cumulative IPC: 0.353844 (Simulation time: 1 hr 12 min 6 sec) 
Heartbeat CPU 0 instructions: 700000000 cycles: 714853782 heartbeat IPC: 0.373357 cumulative IPC: 0.354771 (Simulation time: 1 hr 13 min 7 sec) 
Heartbeat CPU 0 instructions: 710000001 cycles: 739342985 heartbeat IPC: 0.408343 cumulative IPC: 0.357001 (Simulation time: 1 hr 14 min 4 sec) 
Heartbeat CPU 0 instructions: 720000001 cycles: 764380548 heartbeat IPC: 0.3994 cumulative IPC: 0.358732 (Simulation time: 1 hr 15 min 1 sec) 
Heartbeat CPU 0 instructions: 730000000 cycles: 788751208 heartbeat IPC: 0.410329 cumulative IPC: 0.360704 (Simulation time: 1 hr 15 min 59 sec) 
Heartbeat CPU 0 instructions: 740000003 cycles: 813185080 heartbeat IPC: 0.409268 cumulative IPC: 0.362497 (Simulation time: 1 hr 16 min 56 sec) 
Heartbeat CPU 0 instructions: 750000000 cycles: 838389349 heartbeat IPC: 0.396758 cumulative IPC: 0.363753 (Simulation time: 1 hr 17 min 53 sec) 
Heartbeat CPU 0 instructions: 760000004 cycles: 865517462 heartbeat IPC: 0.368621 cumulative IPC: 0.363938 (Simulation time: 1 hr 18 min 56 sec) 
Heartbeat CPU 0 instructions: 770000002 cycles: 893435649 heartbeat IPC: 0.358189 cumulative IPC: 0.363722 (Simulation time: 1 hr 20 min 5 sec) 
Heartbeat CPU 0 instructions: 780000001 cycles: 921677719 heartbeat IPC: 0.354082 cumulative IPC: 0.363368 (Simulation time: 1 hr 21 min 17 sec) 
Heartbeat CPU 0 instructions: 790000000 cycles: 951095261 heartbeat IPC: 0.339933 cumulative IPC: 0.362507 (Simulation time: 1 hr 22 min 43 sec) 
Heartbeat CPU 0 instructions: 800000000 cycles: 980629538 heartbeat IPC: 0.33859 cumulative IPC: 0.361655 (Simulation time: 1 hr 24 min 11 sec) 
Heartbeat CPU 0 instructions: 810000001 cycles: 1011015822 heartbeat IPC: 0.329096 cumulative IPC: 0.360505 (Simulation time: 1 hr 26 min 12 sec) 
Heartbeat CPU 0 instructions: 820000002 cycles: 1040588766 heartbeat IPC: 0.338147 cumulative IPC: 0.359761 (Simulation time: 1 hr 28 min 20 sec) 
Heartbeat CPU 0 instructions: 830000001 cycles: 1069648558 heartbeat IPC: 0.344118 cumulative IPC: 0.359266 (Simulation time: 1 hr 30 min 39 sec) 
Heartbeat CPU 0 instructions: 840000004 cycles: 1098580057 heartbeat IPC: 0.345644 cumulative IPC: 0.35885 (Simulation time: 1 hr 32 min 36 sec) 
Heartbeat CPU 0 instructions: 850000001 cycles: 1127800353 heartbeat IPC: 0.342228 cumulative IPC: 0.358353 (Simulation time: 1 hr 34 min 8 sec) 
Heartbeat CPU 0 instructions: 860000000 cycles: 1157251912 heartbeat IPC: 0.339541 cumulative IPC: 0.357802 (Simulation time: 1 hr 35 min 48 sec) 
Heartbeat CPU 0 instructions: 870000001 cycles: 1186106430 heartbeat IPC: 0.346566 cumulative IPC: 0.357489 (Simulation time: 1 hr 37 min 56 sec) 
Heartbeat CPU 0 instructions: 880000003 cycles: 1215613101 heartbeat IPC: 0.338906 cumulative IPC: 0.356974 (Simulation time: 1 hr 39 min 53 sec) 
Heartbeat CPU 0 instructions: 890000000 cycles: 1245228513 heartbeat IPC: 0.337662 cumulative IPC: 0.356451 (Simulation time: 1 hr 41 min 42 sec) 
Heartbeat CPU 0 instructions: 900000001 cycles: 1274017503 heartbeat IPC: 0.347355 cumulative IPC: 0.356218 (Simulation time: 1 hr 43 min 30 sec) 
Heartbeat CPU 0 instructions: 910000004 cycles: 1303254110 heartbeat IPC: 0.342037 cumulative IPC: 0.355858 (Simulation time: 1 hr 45 min 22 sec) 
Heartbeat CPU 0 instructions: 920000004 cycles: 1332005389 heartbeat IPC: 0.347811 cumulative IPC: 0.355662 (Simulation time: 1 hr 47 min 5 sec) 
Heartbeat CPU 0 instructions: 930000000 cycles: 1361204387 heartbeat IPC: 0.342477 cumulative IPC: 0.355344 (Simulation time: 1 hr 49 min 19 sec) 
Heartbeat CPU 0 instructions: 940000001 cycles: 1391218576 heartbeat IPC: 0.333176 cumulative IPC: 0.354808 (Simulation time: 1 hr 50 min 45 sec) 
Heartbeat CPU 0 instructions: 950000000 cycles: 1421741963 heartbeat IPC: 0.327618 cumulative IPC: 0.354154 (Simulation time: 1 hr 52 min 31 sec) 
Heartbeat CPU 0 instructions: 960000000 cycles: 1452082886 heartbeat IPC: 0.329588 cumulative IPC: 0.353582 (Simulation time: 1 hr 54 min 29 sec) 
Heartbeat CPU 0 instructions: 970000002 cycles: 1482153145 heartbeat IPC: 0.332555 cumulative IPC: 0.353106 (Simulation time: 1 hr 56 min 7 sec) 
Heartbeat CPU 0 instructions: 980000003 cycles: 1513875837 heartbeat IPC: 0.315232 cumulative IPC: 0.352225 (Simulation time: 1 hr 58 min 10 sec) 
Heartbeat CPU 0 instructions: 990000000 cycles: 1541070283 heartbeat IPC: 0.367722 cumulative IPC: 0.352528 (Simulation time: 2 hr 0 min 5 sec) 
Heartbeat CPU 0 instructions: 1000000003 cycles: 1568376287 heartbeat IPC: 0.36622 cumulative IPC: 0.352792 (Simulation time: 2 hr 1 min 40 sec) 
Heartbeat CPU 0 instructions: 1010000000 cycles: 1598024325 heartbeat IPC: 0.33729 cumulative IPC: 0.352474 (Simulation time: 2 hr 2 min 59 sec) 
Heartbeat CPU 0 instructions: 1020000002 cycles: 1627204204 heartbeat IPC: 0.342702 cumulative IPC: 0.352281 (Simulation time: 2 hr 5 min 5 sec) 
Heartbeat CPU 0 instructions: 1030000002 cycles: 1657037428 heartbeat IPC: 0.335197 cumulative IPC: 0.351943 (Simulation time: 2 hr 7 min 17 sec) 
Heartbeat CPU 0 instructions: 1040000000 cycles: 1686983922 heartbeat IPC: 0.333929 cumulative IPC: 0.351591 (Simulation time: 2 hr 9 min 51 sec) 
Heartbeat CPU 0 instructions: 1050000001 cycles: 1718988267 heartbeat IPC: 0.312458 cumulative IPC: 0.350793 (Simulation time: 2 hr 12 min 29 sec) 
Heartbeat CPU 0 instructions: 1060000001 cycles: 1749197792 heartbeat IPC: 0.331021 cumulative IPC: 0.350419 (Simulation time: 2 hr 15 min 2 sec) 
Heartbeat CPU 0 instructions: 1070000003 cycles: 1779909954 heartbeat IPC: 0.325604 cumulative IPC: 0.349951 (Simulation time: 2 hr 16 min 35 sec) 
Heartbeat CPU 0 instructions: 1080000003 cycles: 1809749480 heartbeat IPC: 0.335126 cumulative IPC: 0.349684 (Simulation time: 2 hr 18 min 6 sec) 
Heartbeat CPU 0 instructions: 1090000004 cycles: 1839709954 heartbeat IPC: 0.333773 cumulative IPC: 0.349402 (Simulation time: 2 hr 20 min 37 sec) 
Heartbeat CPU 0 instructions: 1100000000 cycles: 1869695814 heartbeat IPC: 0.33349 cumulative IPC: 0.349124 (Simulation time: 2 hr 23 min 10 sec) 
Heartbeat CPU 0 instructions: 1110000003 cycles: 1900596228 heartbeat IPC: 0.32362 cumulative IPC: 0.348674 (Simulation time: 2 hr 24 min 43 sec) 
Heartbeat CPU 0 instructions: 1120000001 cycles: 1931546290 heartbeat IPC: 0.323101 cumulative IPC: 0.348229 (Simulation time: 2 hr 26 min 4 sec) 
Heartbeat CPU 0 instructions: 1130000002 cycles: 1960307638 heartbeat IPC: 0.347689 cumulative IPC: 0.348221 (Simulation time: 2 hr 27 min 16 sec) 
Heartbeat CPU 0 instructions: 1140000002 cycles: 1989583579 heartbeat IPC: 0.341577 cumulative IPC: 0.348115 (Simulation time: 2 hr 28 min 31 sec) 
Heartbeat CPU 0 instructions: 1150000003 cycles: 2019320310 heartbeat IPC: 0.336284 cumulative IPC: 0.347927 (Simulation time: 2 hr 29 min 49 sec) 
Heartbeat CPU 0 instructions: 1160000001 cycles: 2049118450 heartbeat IPC: 0.335591 cumulative IPC: 0.347733 (Simulation time: 2 hr 31 min 8 sec) 
Heartbeat CPU 0 instructions: 1170000000 cycles: 2078496534 heartbeat IPC: 0.34039 cumulative IPC: 0.347621 (Simulation time: 2 hr 32 min 25 sec) 
Heartbeat CPU 0 instructions: 1180000001 cycles: 2108077808 heartbeat IPC: 0.338052 cumulative IPC: 0.347476 (Simulation time: 2 hr 33 min 43 sec) 
Heartbeat CPU 0 instructions: 1190000000 cycles: 2137722338 heartbeat IPC: 0.33733 cumulative IPC: 0.347325 (Simulation time: 2 hr 35 min 1 sec) 
Heartbeat CPU 0 instructions: 1200000000 cycles: 2167094335 heartbeat IPC: 0.34046 cumulative IPC: 0.347225 (Simulation time: 2 hr 36 min 17 sec) 
Heartbeat CPU 0 instructions: 1210000000 cycles: 2196787523 heartbeat IPC: 0.336778 cumulative IPC: 0.347073 (Simulation time: 2 hr 37 min 33 sec) 
Heartbeat CPU 0 instructions: 1220000004 cycles: 2226115874 heartbeat IPC: 0.340967 cumulative IPC: 0.346987 (Simulation time: 2 hr 38 min 43 sec) 
Heartbeat CPU 0 instructions: 1230000002 cycles: 2254063600 heartbeat IPC: 0.357811 cumulative IPC: 0.347131 (Simulation time: 2 hr 39 min 48 sec) 
Heartbeat CPU 0 instructions: 1240000002 cycles: 2282389809 heartbeat IPC: 0.35303 cumulative IPC: 0.347209 (Simulation time: 2 hr 40 min 55 sec) 
Heartbeat CPU 0 instructions: 1250000000 cycles: 2310297758 heartbeat IPC: 0.358321 cumulative IPC: 0.347353 (Simulation time: 2 hr 42 min 1 sec) 
Heartbeat CPU 0 instructions: 1260000001 cycles: 2338159806 heartbeat IPC: 0.358911 cumulative IPC: 0.3475 (Simulation time: 2 hr 43 min 7 sec) 
Heartbeat CPU 0 instructions: 1270000000 cycles: 2368465384 heartbeat IPC: 0.329972 cumulative IPC: 0.347261 (Simulation time: 2 hr 44 min 15 sec) 
Heartbeat CPU 0 instructions: 1280000001 cycles: 2397793647 heartbeat IPC: 0.340968 cumulative IPC: 0.347178 (Simulation time: 2 hr 45 min 24 sec) 
Heartbeat CPU 0 instructions: 1290000000 cycles: 2431824638 heartbeat IPC: 0.29385 cumulative IPC: 0.346383 (Simulation time: 2 hr 46 min 37 sec) 
Heartbeat CPU 0 instructions: 1300000000 cycles: 2459504997 heartbeat IPC: 0.361267 cumulative IPC: 0.346561 (Simulation time: 2 hr 47 min 41 sec) 
Heartbeat CPU 0 instructions: 1310000002 cycles: 2487088848 heartbeat IPC: 0.362531 cumulative IPC: 0.34675 (Simulation time: 2 hr 48 min 46 sec) 
Heartbeat CPU 0 instructions: 1320000003 cycles: 2515917169 heartbeat IPC: 0.346881 cumulative IPC: 0.346751 (Simulation time: 2 hr 49 min 59 sec) 
Heartbeat CPU 0 instructions: 1330000002 cycles: 2545040214 heartbeat IPC: 0.343371 cumulative IPC: 0.34671 (Simulation time: 2 hr 51 min 16 sec) 
Heartbeat CPU 0 instructions: 1340000001 cycles: 2574314991 heartbeat IPC: 0.341591 cumulative IPC: 0.346648 (Simulation time: 2 hr 52 min 30 sec) 
Heartbeat CPU 0 instructions: 1350000002 cycles: 2603988451 heartbeat IPC: 0.337002 cumulative IPC: 0.346532 (Simulation time: 2 hr 53 min 48 sec) 
Heartbeat CPU 0 instructions: 1360000000 cycles: 2634046238 heartbeat IPC: 0.332692 cumulative IPC: 0.346364 (Simulation time: 2 hr 55 min 6 sec) 
Heartbeat CPU 0 instructions: 1370000000 cycles: 2664240506 heartbeat IPC: 0.331189 cumulative IPC: 0.346182 (Simulation time: 2 hr 56 min 26 sec) 
Heartbeat CPU 0 instructions: 1380000000 cycles: 2694255631 heartbeat IPC: 0.333165 cumulative IPC: 0.346028 (Simulation time: 2 hr 57 min 47 sec) 
Heartbeat CPU 0 instructions: 1390000002 cycles: 2724603995 heartbeat IPC: 0.329507 cumulative IPC: 0.345833 (Simulation time: 2 hr 59 min 12 sec) 
Heartbeat CPU 0 instructions: 1400000003 cycles: 2754649839 heartbeat IPC: 0.332825 cumulative IPC: 0.345683 (Simulation time: 3 hr 0 min 34 sec) 
Heartbeat CPU 0 instructions: 1410000000 cycles: 2785733269 heartbeat IPC: 0.321715 cumulative IPC: 0.3454 (Simulation time: 3 hr 2 min 3 sec) 
Heartbeat CPU 0 instructions: 1420000001 cycles: 2815873591 heartbeat IPC: 0.331782 cumulative IPC: 0.345246 (Simulation time: 3 hr 3 min 34 sec) 
Heartbeat CPU 0 instructions: 1430000004 cycles: 2845890066 heartbeat IPC: 0.33315 cumulative IPC: 0.345112 (Simulation time: 3 hr 4 min 59 sec) 
Heartbeat CPU 0 instructions: 1440000002 cycles: 2876311734 heartbeat IPC: 0.328713 cumulative IPC: 0.344929 (Simulation time: 3 hr 6 min 25 sec) 
Heartbeat CPU 0 instructions: 1450000000 cycles: 2921220462 heartbeat IPC: 0.222674 cumulative IPC: 0.342947 (Simulation time: 3 hr 8 min 5 sec) 
Heartbeat CPU 0 instructions: 1460000002 cycles: 2950807869 heartbeat IPC: 0.337982 cumulative IPC: 0.342894 (Simulation time: 3 hr 9 min 28 sec) 
Heartbeat CPU 0 instructions: 1470000000 cycles: 2980553888 heartbeat IPC: 0.336179 cumulative IPC: 0.342824 (Simulation time: 3 hr 10 min 51 sec) 
Heartbeat CPU 0 instructions: 1480000000 cycles: 3010054441 heartbeat IPC: 0.338977 cumulative IPC: 0.342784 (Simulation time: 3 hr 12 min 12 sec) 
Heartbeat CPU 0 instructions: 1490000004 cycles: 3039213682 heartbeat IPC: 0.342945 cumulative IPC: 0.342785 (Simulation time: 3 hr 13 min 33 sec) 
Heartbeat CPU 0 instructions: 1500000004 cycles: 3068139035 heartbeat IPC: 0.345717 cumulative IPC: 0.342815 (Simulation time: 3 hr 14 min 53 sec) 
Heartbeat CPU 0 instructions: 1510000000 cycles: 3097573893 heartbeat IPC: 0.339733 cumulative IPC: 0.342784 (Simulation time: 3 hr 16 min 10 sec) 
Heartbeat CPU 0 instructions: 1520000002 cycles: 3125362068 heartbeat IPC: 0.359865 cumulative IPC: 0.342943 (Simulation time: 3 hr 17 min 24 sec) 
Heartbeat CPU 0 instructions: 1530000002 cycles: 3153329145 heartbeat IPC: 0.357563 cumulative IPC: 0.34308 (Simulation time: 3 hr 18 min 34 sec) 
Heartbeat CPU 0 instructions: 1540000000 cycles: 3184714734 heartbeat IPC: 0.318617 cumulative IPC: 0.342826 (Simulation time: 3 hr 19 min 49 sec) 
Heartbeat CPU 0 instructions: 1550000000 cycles: 3213932356 heartbeat IPC: 0.342259 cumulative IPC: 0.342821 (Simulation time: 3 hr 21 min 3 sec) 
Heartbeat CPU 0 instructions: 1560000001 cycles: 3242689573 heartbeat IPC: 0.347739 cumulative IPC: 0.342867 (Simulation time: 3 hr 22 min 17 sec) 
Heartbeat CPU 0 instructions: 1570000001 cycles: 3271966549 heartbeat IPC: 0.341565 cumulative IPC: 0.342855 (Simulation time: 3 hr 23 min 32 sec) 
Heartbeat CPU 0 instructions: 1580000000 cycles: 3300812318 heartbeat IPC: 0.346671 cumulative IPC: 0.34289 (Simulation time: 3 hr 24 min 41 sec) 
Heartbeat CPU 0 instructions: 1590000000 cycles: 3327908485 heartbeat IPC: 0.369056 cumulative IPC: 0.343113 (Simulation time: 3 hr 25 min 46 sec) 
Heartbeat CPU 0 instructions: 1600000000 cycles: 3355716872 heartbeat IPC: 0.359604 cumulative IPC: 0.343256 (Simulation time: 3 hr 26 min 54 sec) 
Heartbeat CPU 0 instructions: 1610000000 cycles: 3383739970 heartbeat IPC: 0.356848 cumulative IPC: 0.343374 (Simulation time: 3 hr 28 min 4 sec) 
Heartbeat CPU 0 instructions: 1620000000 cycles: 3411645699 heartbeat IPC: 0.358349 cumulative IPC: 0.343502 (Simulation time: 3 hr 29 min 12 sec) 
Heartbeat CPU 0 instructions: 1630000000 cycles: 3439897180 heartbeat IPC: 0.353964 cumulative IPC: 0.343592 (Simulation time: 3 hr 30 min 22 sec) 
Heartbeat CPU 0 instructions: 1640000002 cycles: 3468277956 heartbeat IPC: 0.352351 cumulative IPC: 0.343667 (Simulation time: 3 hr 31 min 37 sec) 
Heartbeat CPU 0 instructions: 1650000002 cycles: 3494634476 heartbeat IPC: 0.379413 cumulative IPC: 0.343948 (Simulation time: 3 hr 32 min 46 sec) 
Heartbeat CPU 0 instructions: 1660000000 cycles: 3520946386 heartbeat IPC: 0.380056 cumulative IPC: 0.34423 (Simulation time: 3 hr 33 min 55 sec) 
Heartbeat CPU 0 instructions: 1670000003 cycles: 3547405154 heartbeat IPC: 0.377947 cumulative IPC: 0.344493 (Simulation time: 3 hr 35 min 5 sec) 
Heartbeat CPU 0 instructions: 1680000002 cycles: 3574234467 heartbeat IPC: 0.372727 cumulative IPC: 0.344714 (Simulation time: 3 hr 36 min 15 sec) 
Heartbeat CPU 0 instructions: 1690000000 cycles: 3605609629 heartbeat IPC: 0.318723 cumulative IPC: 0.344478 (Simulation time: 3 hr 37 min 28 sec) 
Heartbeat CPU 0 instructions: 1700000002 cycles: 3631931463 heartbeat IPC: 0.379913 cumulative IPC: 0.344746 (Simulation time: 3 hr 38 min 36 sec) 
Heartbeat CPU 0 instructions: 1710000003 cycles: 3659446260 heartbeat IPC: 0.363441 cumulative IPC: 0.344893 (Simulation time: 3 hr 39 min 47 sec) 
Heartbeat CPU 0 instructions: 1720000002 cycles: 3687234855 heartbeat IPC: 0.35986 cumulative IPC: 0.34501 (Simulation time: 3 hr 41 min 0 sec) 
Heartbeat CPU 0 instructions: 1730000001 cycles: 3713940017 heartbeat IPC: 0.374459 cumulative IPC: 0.345231 (Simulation time: 3 hr 42 min 12 sec) 
Heartbeat CPU 0 instructions: 1740000002 cycles: 3741862181 heartbeat IPC: 0.358138 cumulative IPC: 0.345332 (Simulation time: 3 hr 43 min 23 sec) 
Heartbeat CPU 0 instructions: 1750000001 cycles: 3768004275 heartbeat IPC: 0.382525 cumulative IPC: 0.3456 (Simulation time: 3 hr 44 min 31 sec) 
Heartbeat CPU 0 instructions: 1760000001 cycles: 3806098200 heartbeat IPC: 0.262509 cumulative IPC: 0.344734 (Simulation time: 3 hr 45 min 54 sec) 
Heartbeat CPU 0 instructions: 1770000003 cycles: 3832285947 heartbeat IPC: 0.381858 cumulative IPC: 0.344998 (Simulation time: 3 hr 47 min 1 sec) 
Heartbeat CPU 0 instructions: 1780000000 cycles: 3858886153 heartbeat IPC: 0.375937 cumulative IPC: 0.34522 (Simulation time: 3 hr 48 min 9 sec) 
Heartbeat CPU 0 instructions: 1790000000 cycles: 3885593311 heartbeat IPC: 0.374431 cumulative IPC: 0.345429 (Simulation time: 3 hr 49 min 17 sec) 
Heartbeat CPU 0 instructions: 1800000000 cycles: 3910674191 heartbeat IPC: 0.39871 cumulative IPC: 0.345785 (Simulation time: 3 hr 50 min 24 sec) 
Heartbeat CPU 0 instructions: 1810000000 cycles: 3936721915 heartbeat IPC: 0.383911 cumulative IPC: 0.346047 (Simulation time: 3 hr 51 min 32 sec) 
Heartbeat CPU 0 instructions: 1820000001 cycles: 3962550201 heartbeat IPC: 0.387172 cumulative IPC: 0.346326 (Simulation time: 3 hr 52 min 41 sec) 
Heartbeat CPU 0 instructions: 1830000000 cycles: 3988609046 heartbeat IPC: 0.383747 cumulative IPC: 0.34658 (Simulation time: 3 hr 53 min 50 sec) 
Heartbeat CPU 0 instructions: 1840000001 cycles: 4014502172 heartbeat IPC: 0.386203 cumulative IPC: 0.346845 (Simulation time: 3 hr 54 min 56 sec) 
Heartbeat CPU 0 instructions: 1850000001 cycles: 4041769418 heartbeat IPC: 0.36674 cumulative IPC: 0.346985 (Simulation time: 3 hr 56 min 5 sec) 
Heartbeat CPU 0 instructions: 1860000000 cycles: 4068782964 heartbeat IPC: 0.370185 cumulative IPC: 0.347145 (Simulation time: 3 hr 57 min 17 sec) 
Heartbeat CPU 0 instructions: 1870000001 cycles: 4098999657 heartbeat IPC: 0.330943 cumulative IPC: 0.347021 (Simulation time: 3 hr 58 min 26 sec) 
Heartbeat CPU 0 instructions: 1880000004 cycles: 4123424176 heartbeat IPC: 0.409425 cumulative IPC: 0.347405 (Simulation time: 3 hr 59 min 22 sec) 
Heartbeat CPU 0 instructions: 1890000000 cycles: 4147162399 heartbeat IPC: 0.421261 cumulative IPC: 0.347843 (Simulation time: 4 hr 0 min 17 sec) 
Heartbeat CPU 0 instructions: 1900000002 cycles: 4171559977 heartbeat IPC: 0.409877 cumulative IPC: 0.34822 (Simulation time: 4 hr 1 min 13 sec) 
Heartbeat CPU 0 instructions: 1910000001 cycles: 4195561488 heartbeat IPC: 0.41664 cumulative IPC: 0.348626 (Simulation time: 4 hr 2 min 9 sec) 
Heartbeat CPU 0 instructions: 1920000000 cycles: 4220175490 heartbeat IPC: 0.406273 cumulative IPC: 0.348974 (Simulation time: 4 hr 3 min 5 sec) 
Heartbeat CPU 0 instructions: 1930000001 cycles: 4244291103 heartbeat IPC: 0.414669 cumulative IPC: 0.349362 (Simulation time: 4 hr 4 min 0 sec) 
Heartbeat CPU 0 instructions: 1940000001 cycles: 4271774233 heartbeat IPC: 0.36386 cumulative IPC: 0.349458 (Simulation time: 4 hr 5 min 3 sec) 
Heartbeat CPU 0 instructions: 1950000000 cycles: 4297977035 heartbeat IPC: 0.381639 cumulative IPC: 0.349662 (Simulation time: 4 hr 6 min 5 sec) 
Heartbeat CPU 0 instructions: 1960000001 cycles: 4323984559 heartbeat IPC: 0.384504 cumulative IPC: 0.349879 (Simulation time: 4 hr 7 min 8 sec) 
Heartbeat CPU 0 instructions: 1970000000 cycles: 4357278967 heartbeat IPC: 0.300351 cumulative IPC: 0.349487 (Simulation time: 4 hr 8 min 18 sec) 
Heartbeat CPU 0 instructions: 1980000003 cycles: 4385938952 heartbeat IPC: 0.348919 cumulative IPC: 0.349483 (Simulation time: 4 hr 9 min 24 sec) 
Heartbeat CPU 0 instructions: 1990000001 cycles: 4411845141 heartbeat IPC: 0.386008 cumulative IPC: 0.349705 (Simulation time: 4 hr 10 min 26 sec) 
*** Reached end of trace: traces/605.mcf_s-1152B.champsimtrace.xz
Heartbeat CPU 0 instructions: 2000000004 cycles: 4437142921 heartbeat IPC: 0.395292 cumulative IPC: 0.349974 (Simulation time: 4 hr 11 min 26 sec) 
Finished CPU 0 instructions: 1500000002 cycles: 4286033027 cumulative IPC: 0.349974 (Simulation time: 4 hr 11 min 26 sec) 

ChampSim completed all CPUs

Region of Interest Statistics

CPU 0 cumulative IPC: 0.349974 instructions: 1500000002 cycles: 4286033027
cpu0_DTLB TOTAL     ACCESS:  373636840  HIT:  321865548  MISS:   51771292
cpu0_DTLB LOAD      ACCESS:  305344019  HIT:  256894144  MISS:   48449875
cpu0_DTLB RFO       ACCESS:   68292821  HIT:   64971404  MISS:    3321417
cpu0_DTLB PREFETCH  ACCESS:          0  HIT:          0  MISS:          0
cpu0_DTLB WRITEBACK ACCESS:          0  HIT:          0  MISS:          0
cpu0_DTLB TRANSLATION ACCESS:          0  HIT:          0  MISS:          0
cpu0_DTLB PREFETCH  REQUESTED:          0  ISSUED:          0  USEFUL:          0  USELESS:          0
cpu0_DTLB AVERAGE MISS LATENCY: 10.2094 cycles
cpu0_ITLB TOTAL     ACCESS:  199331272  HIT:  199331272  MISS:          0
cpu0_ITLB LOAD      ACCESS:  199331272  HIT:  199331272  MISS:          0
cpu0_ITLB RFO       ACCESS:          0  HIT:          0  MISS:          0
cpu0_ITLB PREFETCH  ACCESS:          0  HIT:          0  MISS:          0
cpu0_ITLB WRITEBACK ACCESS:          0  HIT:          0  MISS:          0
cpu0_ITLB TRANSLATION ACCESS:          0  HIT:          0  MISS:          0
cpu0_ITLB PREFETCH  REQUESTED:          0  ISSUED:          0  USEFUL:          0  USELESS:          0
cpu0_ITLB AVERAGE MISS LATENCY: -nan cycles
cpu0_L1I TOTAL     ACCESS:    1322141  HIT:    1322141  MISS:          0
cpu0_L1I LOAD      ACCESS:    1322141  HIT:    1322141  MISS:          0
cpu0_L1I RFO       ACCESS:          0  HIT:          0  MISS:          0
cpu0_L1I PREFETCH  ACCESS:          0  HIT:          0  MISS:          0
cpu0_L1I WRITEBACK ACCESS:          0  HIT:          0  MISS:          0
cpu0_L1I TRANSLATION ACCESS:          0  HIT:          0  MISS:          0
cpu0_L1I PREFETCH  REQUESTED:          0  ISSUED:          0  USEFUL:          0  USELESS:          0
cpu0_L1I AVERAGE MISS LATENCY: -nan cycles
cpu0_STLB TOTAL     ACCESS:   51771292  HIT:   51090733  MISS:     680559
cpu0_STLB LOAD      ACCESS:   48449875  HIT:   47778846  MISS:     671029
cpu0_STLB RFO       ACCESS:    3321417  HIT:    3311887  MISS:       9530
cpu0_STLB PREFETCH  ACCESS:          0  HIT:          0  MISS:          0
cpu0_STLB WRITEBACK ACCESS:          0  HIT:          0  MISS:          0
cpu0_STLB TRANSLATION ACCESS:          0  HIT:          0  MISS:          0
cpu0_STLB PREFETCH  REQUESTED:          0  ISSUED:          0  USEFUL:          0  USELESS:          0
cpu0_STLB AVERAGE MISS LATENCY: 91.0903 cycles
cpu0_L1D TOTAL     ACCESS:  487638727  HIT:  388176179  MISS:   99462548
cpu0_L1D LOAD      ACCESS:  361548903  HIT:  266810697  MISS:   94738206
cpu0_L1D RFO       ACCESS:  125410688  HIT:  120758404  MISS:    4652284
cpu0_L1D PREFETCH  ACCESS:          0  HIT:          0  MISS:          0
cpu0_L1D WRITEBACK ACCESS:          0  HIT:          0  MISS:          0
cpu0_L1D TRANSLATION ACCESS:     679136  HIT:     607078  MISS:      72058
cpu0_L1D PREFETCH  REQUESTED:          0  ISSUED:          0  USEFUL:          0  USELESS:          0
cpu0_L1D AVERAGE MISS LATENCY: 91.4642 cycles
cpu0_L2C TOTAL     ACCESS:  106798654  HIT:   27659571  MISS:   79139083
cpu0_L2C LOAD      ACCESS:   94737229  HIT:   18110390  MISS:   76626839
cpu0_L2C RFO       ACCESS:    4652279  HIT:    2168231  MISS:    2484048
cpu0_L2C PREFETCH  ACCESS:          0  HIT:          0  MISS:          0
cpu0_L2C WRITEBACK ACCESS:    7337088  HIT:    7329386  MISS:       7702
cpu0_L2C TRANSLATION ACCESS:      72058  HIT:      51564  MISS:      20494
cpu0_L2C PREFETCH  REQUESTED:          0  ISSUED:          0  USEFUL:          0  USELESS:          0
cpu0_L2C AVERAGE MISS LATENCY: 101.057 cycles
LLC TOTAL     ACCESS:   84009150  HIT:   44973746  MISS:   39035404
LLC LOAD      ACCESS:   76626718  HIT:   37706825  MISS:   38919893
LLC RFO       ACCESS:    2484035  HIT:    2427912  MISS:      56123
LLC PREFETCH  ACCESS:          0  HIT:          0  MISS:          0
LLC WRITEBACK ACCESS:    4877903  HIT:    4822808  MISS:      55095
LLC TRANSLATION ACCESS:      20494  HIT:      16201  MISS:       4293
LLC PREFETCH  REQUESTED:          0  ISSUED:          0  USEFUL:          0  USELESS:          0
LLC AVERAGE MISS LATENCY: 162.249 cycles
~~~~~~~~~~Reuse Distance Profiler output~~~~~~~~~~
0	37999024	12807856
1	40925888	22696912
2	41031152	22929376
3	40566976	24636000
4	31786688	20173616
5	28062608	20000096
6	22448736	16440800
7	21356192	14911280
8	19006448	12133968
9	16024656	11779152
10	14607680	10179088
11	12726416	9444832
12	11272992	8321120
13	10416304	7208864
14	8671952	6087952
15	7731504	5465968
16	6943104	5222336
17	5727872	4311840
18	5087760	3911376
19	4361632	3281152
20	4023456	3050928
21	3229200	2505888
22	3010832	2257232
23	2732656	2089088
24	2384080	1882640
25	2169920	1728048
26	1914384	1551440
27	1819680	1512480
28	1685984	1363728
29	1577536	1281840
30	1547280	1297248
31	1447872	1237024
32	1300000	1074512
33	1079264	881856
34	994864	807424
35	973504	806384
36	916560	780960
37	837136	706384
38	856448	682768
39	745904	610560
40	719776	551200
41	653440	525632
42	575488	495424
43	577696	496352
44	586752	496320
45	604032	500448
46	548400	466752
47	503568	441424
48	468432	417040
49	458592	406496
50	438960	381456
51	425904	365824
52	394480	344896
53	370816	323664
54	355232	311328
55	350000	307696
56	349872	307504
57	328016	286640
58	323952	286464
59	311280	273936
60	312864	276224
61	318576	282496
62	288560	253760
63	285264	252608
64	538576	475472
66	506000	447936
68	478624	423072
70	464192	411776
72	447136	396736
74	414160	362992
76	396064	339072
78	390608	330240
80	386608	324272
82	377680	309616
84	367360	298736
86	363104	293136
88	353232	285024
90	340352	274576
92	340576	276704
94	331760	269296
96	327552	268608
98	326144	268192
100	325488	268112
102	317248	266432
104	306512	258848
106	300608	254928
108	292912	247520
110	285584	238992
112	275456	229520
114	266832	221696
116	262176	222400
118	254624	217936
120	247424	213536
122	243584	212976
124	233584	204144
126	237040	207824
128	476864	417696
132	465440	411952
136	463392	409520
140	450256	399120
144	436880	389280
148	434416	388624
152	425952	379408
156	427360	377696
160	419776	369344
164	420864	371344
168	416464	367072
172	408352	361888
176	401712	354192
180	395440	348832
184	388496	342800
188	386416	338368
192	374464	328416
196	373536	327120
200	372624	328496
204	380368	334368
208	366640	321488
212	364992	320224
216	353024	308784
220	344016	300848
224	338928	297952
228	331840	291328
232	328992	288480
236	330640	290752
240	321792	283264
244	319520	280592
248	309552	272560
252	306336	270208
256	593616	522736
264	570016	503408
272	555520	488384
280	540064	477888
288	521120	461024
296	507568	449056
304	493760	437104
312	486416	429552
320	467888	414368
328	457968	403296
336	441648	392544
344	430128	378992
352	417120	368176
360	400976	354656
368	382496	338512
376	373424	332016
384	370560	330960
392	357152	318304
400	350352	312992
408	340464	304064
416	329136	293680
424	326448	291920
432	316736	283552
440	312592	281680
448	309952	278736
456	298752	269648
464	295136	267040
472	289392	262432
480	287792	259600
488	279936	253504
496	274032	248096
504	271648	246112
512	524416	476384
528	506944	459904
544	496192	450160
560	486800	441744
576	466928	422672
592	458320	413152
608	447264	401040
624	441232	392976
640	435120	384720
656	428016	379072
672	416816	371024
688	404800	361104
704	383248	340544
720	368512	327008
736	367120	324112
752	359648	319168
768	349248	309824
784	339056	301680
800	333104	295936
816	321312	285056
832	319792	283280
848	310944	276928
864	300880	267936
880	289616	258512
896	291808	260448
912	284480	253248
928	279360	249328
944	272816	243216
960	271120	243632
976	264704	238016
992	262192	235456
1008	255472	229488
1024	501776	451280
1056	490416	440048
1088	477616	429600
1120	463952	416640
1152	455344	410416
1184	442896	399328
1216	425520	383824
1248	414832	374256
1280	400240	359392
1312	393760	354896
1344	381248	343808
1376	375008	338560
1408	365600	330960
1440	360464	325968
1472	352976	319776
1504	344144	311440
1536	335392	304384
1568	326272	297408
1600	323504	296096
1632	317360	288784
1664	307216	280144
1696	304832	276976
1728	297952	272864
1760	289200	263792
1792	285232	259264
1824	284912	259456
1856	273568	249024
1888	265472	243520
1920	260288	236176
1952	254080	230848
1984	248784	226688
2016	243904	221792
2048	485408	442880
2112	467952	427488
2176	456128	416976
2240	440784	403104
2304	429616	392016
2368	412416	376656
2432	399296	364096
2496	393120	360128
2560	372320	340880
2624	362384	332544
2688	355568	324864
2752	334816	304896
2816	323568	296032
2880	315840	288608
2944	308960	283184
3008	301296	274784
3072	297680	273568
3136	298224	272080
3200	287728	263504
3264	280720	256640
3328	267904	244304
3392	269776	246544
3456	263776	241920
3520	259024	237792
3584	258624	237712
3648	250656	230240
3712	249744	228880
3776	242224	222768
3840	236992	218016
3904	232064	213472
3968	227856	210480
4032	221040	203568
4096	439584	403712
4224	412336	379136
4352	405552	372960
4480	390304	358976
4608	373296	343488
4736	365280	335312
4864	352928	324208
4992	336016	308432
5120	326640	299728
5248	322240	295968
5376	318848	293168
5504	314448	290192
5632	304336	280480
5760	294112	271104
5888	286640	263872
6016	274944	253552
6144	264160	242384
6272	259824	239648
6400	245760	225184
6528	235968	216880
6656	223328	203888
6784	215184	196416
6912	206816	188864
7040	205296	187664
7168	209024	191760
7296	203376	185808
7424	207088	189248
7552	202480	186304
7680	196416	180688
7808	189408	173840
7936	189152	174416
8064	185936	170992
8192	366368	338528
8448	362112	335552
8704	362192	335408
8960	350144	323872
9216	339072	314112
9472	321424	296528
9728	309840	287056
9984	310096	288320
10240	305824	284144
10496	299712	279104
10752	291056	270736
11008	292112	272096
11264	289712	270496
11520	280688	261280
11776	272656	254592
12032	267936	250896
12288	266992	249696
12544	258352	242016
12800	247680	229696
13056	238160	221200
13312	224336	207888
13568	221072	204400
13824	212672	196880
14080	209168	193040
14336	206320	190256
14592	209504	194304
14848	228384	214032
15104	237360	222608
15360	220144	205696
15616	203264	187920
15872	174464	158368
16128	182288	160880
16384	389632	335040
16896	338032	267232
17408	333200	232032
17920	343312	227888
18432	348480	232000
18944	320160	210288
19456	299376	189280
19968	295968	182560
20480	298048	181104
20992	301792	181216
21504	297920	179664
22016	285936	168288
22528	284048	162544
23040	274480	154192
23552	268016	149120
24064	258368	142864
24576	253248	142672
25088	246512	138224
25600	240992	137408
26112	236112	134768
26624	231248	131728
27136	230896	132896
27648	224864	132496
28160	215712	125552
28672	215648	127536
29184	212400	127664
29696	204544	122880
30208	199440	120240
30720	191680	117280
31232	188560	114080
31744	188528	118816
32256	183200	115312
32768	369248	237856
33792	350640	230768
34816	341856	230112
35840	334784	232864
36864	321328	229600
37888	314640	231264
38912	313216	236656
39936	319424	249552
40960	351264	285408
41984	398656	339216
43008	471152	412688
44032	534176	477024
45056	613024	560320
46080	705456	655360
47104	813424	764752
48128	933360	886720
49152	1045168	999344
50176	1115552	1073984
51200	1238288	1195760
52224	1393552	1354992
53248	1391920	1356256
54272	1356160	1322896
55296	1467488	1436400
56320	1461280	1433408
57344	1411264	1387872
58368	1299408	1277200
59392	1271568	1251648
60416	1312032	1295312
61440	1196112	1179648
62464	1383504	1368320
63488	1260288	1244656
64512	1213712	1199760
65536	2188864	2164256
67584	1674000	1654240
69632	1136544	1118000
71680	1036768	1021568
73728	926000	911568
75776	1015552	1002768
77824	1008576	996752
79872	1041920	1030864
81920	1205328	1194048
83968	1322736	1311616
86016	1509152	1499440
88064	1198368	1189456
90112	880608	871888
92160	616128	608928
94208	495232	486768
96256	482480	475216
98304	482032	474480
100352	539824	532944
102400	541168	534960
104448	486640	481488
106496	378976	375056
108544	295200	291776
110592	282576	279728
112640	260496	257520
114688	229088	227408
116736	191728	189648
118784	177920	176384
120832	173088	171440
122880	173888	172256
124928	178800	177136
126976	183600	182096
129024	180192	178768
131072	364784	362848
135168	402512	400528
139264	513296	511360
143360	407184	404992
147456	410880	409216
151552	421792	420032
155648	387184	385824
159744	316608	315312
163840	317328	316080
167936	326976	325664
172032	320592	319168
176128	283504	282192
180224	245344	244272
184320	221488	220512
188416	214192	212848
192512	204896	204048
196608	206592	205648
200704	205616	205040
204800	181536	180832
208896	151872	151136
212992	135456	135056
217088	130336	129952
221184	135456	134848
225280	140976	140640
229376	130656	130224
233472	122944	122480
237568	127120	126720
241664	136016	135648
245760	151824	151424
249856	169184	168880
253952	186800	186320
258048	186352	185840
262144	333024	332080
270336	272320	271216
278528	239456	238672
286720	205056	204544
294912	223584	222944
303104	252160	251600
311296	239888	239248
319488	222048	221328
327680	212064	211424
335872	234080	233536
344064	208912	208480
352256	181648	180992
360448	151616	151136
368640	141552	141072
376832	144368	143888
385024	154608	154192
393216	166432	166032
401408	168272	167872
409600	147472	146928
417792	149728	149408
425984	160624	160288
434176	150592	150304
442368	155568	155120
450560	157936	157600
458752	127392	127056
466944	101792	101504
475136	96736	96544
483328	94368	94048
491520	92576	92320
499712	108768	108304
507904	123824	123552
516096	119088	118912
524288	205280	204864
540672	162000	161632
557056	174320	173856
573440	145312	144992
589824	167344	167056
606208	189168	188704
622592	145232	144944
638976	121200	120992
655360	114304	113888
671744	128016	127712
688128	124624	124416
704512	122384	121984
720896	115248	115072
737280	98000	97712
753664	95680	95504
770048	101328	101152
786432	97472	97216
802816	90656	90576
819200	75744	75504
835584	85280	85104
851968	85184	85040
868352	73728	73584
884736	69808	69680
901120	73872	73728
917504	67568	67424
933888	62768	62640
950272	66672	66640
966656	66432	66336
983040	56416	56368
999424	53264	53104
1015808	54592	54464
1032192	53456	53360
1048576	99696	99376
1081344	84400	84192
1114112	98784	98528
1146880	80384	80112
1179648	71792	71552
1212416	102896	102752
1245184	68224	68048
1277952	69248	69152
1310720	57472	57280
1343488	60400	60192
1376256	57728	57616
1409024	51712	51472
1441792	53328	53232
1474560	47072	46848
1507328	47344	47328
1540096	47440	47296
1572864	39568	39456
1605632	39056	38896
1638400	33888	33808
1671168	41776	41680
1703936	36256	36128
1736704	31904	31808
1769472	33088	33024
1802240	35504	35440
1835008	29872	29840
1867776	28736	28672
1900544	27632	27536
1933312	25680	25648
1966080	27680	27600
1998848	24944	24880
2031616	24320	24256
2064384	23872	23744
2097152	47824	47680
2162688	40768	40672
2228224	39808	39712
2293760	36992	36912
2359296	36752	36672
2424832	33504	33440
2490368	33792	33744
2555904	32512	32496
2621440	30096	30064
2686976	28832	28784
2752512	30016	29904
2818048	26144	26112
2883584	26240	26224
2949120	23344	23264
3014656	23808	23776
3080192	22624	22544
3145728	33632	33488
3211264	20608	20544
3276800	20240	20144
3342336	20928	20864
3407872	17616	17600
3473408	18384	18240
3538944	17664	17600
3604480	16704	16640
3670016	17296	17280
3735552	17200	17120
3801088	16000	15888
3866624	19760	19760
3932160	18624	18528
3997696	13024	13024
4063232	13936	13872
4128768	14832	14800
4194304	24688	24560
4325376	24928	24896
4456448	22912	22864
4587520	22720	22688
4718592	21072	20960
4849664	21936	21792
4980736	28608	28544
5111808	17264	17168
5242880	17728	17712
5373952	17184	17120
5505024	16736	16704
5636096	14656	14592
5767168	19936	19872
5898240	15744	15712
6029312	13456	13392
6160384	15120	15088
6291456	13472	13424
6422528	13664	13632
6553600	12304	12224
6684672	12560	12432
6815744	12768	12720
6946816	13264	13168
7077888	11088	11024
7208960	11264	11248
7340032	10112	10096
7471104	10336	10288
7602176	9280	9264
7733248	10384	10304
7864320	9680	9680
7995392	8752	8688
8126464	9680	9664
8257536	8544	8544
8388608	17488	17424
8650752	16544	16464
8912896	15504	15424
9175040	15760	15728
9437184	13712	13680
9699328	13408	13312
9961472	12032	11984
10223616	11936	11920
10485760	17120	17056
10747904	12720	12640
11010048	10992	10896
11272192	10144	10048
11534336	10384	10336
11796480	9536	9472
12058624	14048	14016
12320768	10640	10560
12582912	11200	11152
12845056	8336	8256
13107200	8016	7952
13369344	7760	7728
13631488	8064	8032
13893632	7024	6976
14155776	7536	7456
14417920	6720	6656
14680064	6176	6144
14942208	6160	6160
15204352	5888	5872
15466496	5392	5376
15728640	5904	5872
15990784	5648	5632
16252928	5648	5616
16515072	4592	4528
16777216	9904	9824
17301504	9904	9808
17825792	9488	9472
18350080	8608	8416
18874368	8432	8304
19398656	7568	7488
19922944	8080	8048
20447232	7232	7168
20971520	16576	16480
21495808	6112	6048
22020096	5360	5360
22544384	7760	7728
23068672	5696	5568
23592960	6704	6624
24117248	4320	4304
24641536	4464	4384
25165824	4768	4672
25690112	4880	4832
26214400	4160	4128
26738688	3904	3872
27262976	3296	3248
27787264	10416	10384
28311552	3872	3840
28835840	2960	2800
29360128	4624	4544
29884416	4512	4448
30408704	5600	5568
30932992	3296	3184
31457280	3632	3536
31981568	2464	2448
32505856	2624	2512
33030144	2560	2528
33554432	5424	5248
34603008	6512	6432
35651584	14576	14512
36700160	11232	11120
37748736	4304	4240
38797312	5008	4928
39845888	4320	4256
40894464	3712	3648
41943040	4384	4304
42991616	2000	1904
44040192	2928	2848
45088768	2912	2880
46137344	3616	3504
47185920	9648	9616
48234496	6288	6224
49283072	8080	8016
50331648	2880	2800
51380224	1504	1440
52428800	2480	2416
53477376	9840	9792
54525952	1152	1136
55574528	1568	1552
56623104	2928	2880
57671680	2304	2240
58720256	1536	1456
59768832	6624	6528
60817408	2032	1856
61865984	1392	1280
62914560	1184	1136
63963136	1216	1120
65011712	1120	1024
66060288	1296	1184
67108864	5632	5440
69206016	2480	2384
71303168	1616	1488
73400320	1440	1392
75497472	4480	4400
77594624	1680	1568
79691776	1488	1408
81788928	1840	1776
83886080	1648	1584
85983232	864	800
88080384	1328	1264
90177536	1472	1408
92274688	1376	1264
94371840	1648	1568
96468992	4128	4096
98566144	720	672
100663296	688	640
102760448	992	896
104857600	688	640
106954752	320	256
109051904	448	400
111149056	576	464
113246208	640	608
115343360	608	592
117440512	512	448
119537664	752	720
121634816	1424	1328
123731968	544	416
125829120	672	656
127926272	640	608
130023424	800	752
132120576	544	448
134217728	640	528
138412032	1216	1168
142606336	624	528
146800640	624	624
150994944	496	480
155189248	1792	1744
159383552	576	496
163577856	2384	2256
167772160	512	432
171966464	656	608
176160768	464	368
180355072	704	560
184549376	1808	1744
188743680	688	640
192937984	512	432
197132288	720	480
201326592	304	256
205520896	368	288
209715200	448	320
213909504	272	192
218103808	384	352
222298112	304	240
226492416	128	112
230686720	160	144
234881024	112	112
239075328	304	256
243269632	240	176
247463936	272	224
251658240	224	160
255852544	176	64
260046848	288	208
264241152	176	160
268435456	400	256
276824064	208	112
285212672	368	256
293601280	240	176
301989888	256	176
310378496	320	208
318767104	448	288
327155712	1520	1424
335544320	432	400
343932928	224	208
352321536	592	304
360710144	448	368
369098752	2160	2128
377487360	128	64
385875968	160	160
394264576	176	112
402653184	1072	1008
411041792	4955840	4955824
419430400	2735888	2735856
427819008	1700128	1700128
436207616	1191648	1191632
444596224	400000	399984
452984832	692096	692096
461373440	515664	515664
469762048	0	0
478150656	16	0
486539264	0	0
494927872	0	0
503316480	0	0
511705088	0	0
520093696	0	0
528482304	0	0
536870912	0	0
553648128	0	0
570425344	0	0
587202560	0	0
603979776	0	0
620756992	0	0
637534208	0	0
654311424	0	0
671088640	0	0
687865856	0	0
704643072	0	0
721420288	0	0
738197504	0	0
754974720	0	0
771751936	0	0
788529152	0	0
805306368	0	0
822083584	0	0
838860800	0	0
855638016	0	0
872415232	0	0
889192448	0	0
905969664	0	0
922746880	0	0
939524096	0	0
956301312	0	0
973078528	0	0
989855744	0	0
1006632960	0	0
1023410176	0	0
1040187392	0	0
1056964608	0	0
1073741824	0	0
1107296256	0	0
1140850688	0	0
1174405120	0	0
1207959552	0	0
1241513984	0	0
1275068416	0	0
1308622848	0	0
1342177280	0	0
1375731712	0	0
1409286144	0	0
1442840576	0	0
1476395008	0	0
1509949440	0	0
1543503872	0	0
1577058304	0	0
1610612736	0	0
1644167168	0	0
1677721600	0	0
1711276032	0	0
1744830464	0	0
1778384896	0	0
1811939328	0	0
1845493760	0	0
1879048192	0	0
1912602624	0	0
1946157056	0	0
1979711488	0	0
2013265920	0	0
2046820352	0	0
2080374784	0	0
2113929216	0	0
2147483648	0	0
2214592512	0	0
2281701376	0	0
2348810240	0	0
2415919104	0	0
2483027968	0	0
2550136832	0	0
2617245696	0	0
2684354560	0	0
2751463424	0	0
2818572288	0	0
2885681152	0	0
2952790016	0	0
3019898880	0	0
3087007744	0	0
3154116608	0	0
3221225472	0	0
3288334336	0	0
3355443200	0	0
3422552064	0	0
3489660928	0	0
3556769792	0	0
3623878656	0	0
3690987520	0	0
3758096384	0	0
3825205248	0	0
3892314112	0	0
3959422976	0	0
4026531840	0	0
4093640704	0	0
4160749568	0	0
4227858432	0	0
~~~~~~~~~~Reuse Distance Profiler output end~~~~~~~~~~

DRAM Statistics
 CHANNEL 0
 RQ ROW_BUFFER_HIT:   19176751  ROW_BUFFER_MISS:   19801534
 DBUS AVG_CONGESTED_CYCLE:    3.79909
 WQ ROW_BUFFER_HIT:     216781  ROW_BUFFER_MISS:     359883  FULL:          0


CPU 0 Branch Prediction Accuracy: 91.2131% MPKI: 22.4726 Average ROB Occupancy at Mispredict: 26.2452
Branch type MPKI
BRANCH_DIRECT_JUMP: 0
BRANCH_INDIRECT: 0
BRANCH_CONDITIONAL: 22.4726
BRANCH_DIRECT_CALL: 0
BRANCH_INDIRECT_CALL: 1.93333e-05
BRANCH_RETURN: 0

