
*** ChampSim Multicore Out-of-Order Simulator ***

Warmup Instructions: 500000000
Simulation Instructions: 1500000000
Number of CPUs: 1
Off-chip DRAM Size: 4 GiB Channels: 1 Width: 64-bit Data Rate: 3200 MT/s

VirtualMemory physical capacity: 8588881920 num_ppages: 2096895
VirtualMemory page size: 4096 log2_page_size: 12

CPU 0 runs traces/605.mcf_s-1536B.champsimtrace.xz
CPU 0 Bimodal branch predictor
Basic BTB sets: 1024 ways: 8 indirect buffer size: 4096 RAS size: 64
Initializing LRU.
Initializing LRU.
Initializing LRU.
Initializing LRU.
Initializing rdLRU.
Initializing LRU.
Initializing LRU.
Heartbeat CPU 0 instructions: 10000001 cycles: 2500063 heartbeat IPC: 3.9999 cumulative IPC: 3.9999 (Simulation time: 0 hr 0 min 47 sec) 
Heartbeat CPU 0 instructions: 20000001 cycles: 5000063 heartbeat IPC: 4 cumulative IPC: 3.99995 (Simulation time: 0 hr 1 min 33 sec) 
Heartbeat CPU 0 instructions: 30000001 cycles: 7500063 heartbeat IPC: 4 cumulative IPC: 3.99997 (Simulation time: 0 hr 2 min 22 sec) 
Heartbeat CPU 0 instructions: 40000001 cycles: 10000063 heartbeat IPC: 4 cumulative IPC: 3.99997 (Simulation time: 0 hr 3 min 24 sec) 
Heartbeat CPU 0 instructions: 50000001 cycles: 12500063 heartbeat IPC: 4 cumulative IPC: 3.99998 (Simulation time: 0 hr 4 min 25 sec) 
Heartbeat CPU 0 instructions: 60000001 cycles: 15000063 heartbeat IPC: 4 cumulative IPC: 3.99998 (Simulation time: 0 hr 5 min 28 sec) 
Heartbeat CPU 0 instructions: 70000001 cycles: 17500063 heartbeat IPC: 4 cumulative IPC: 3.99999 (Simulation time: 0 hr 6 min 16 sec) 
Heartbeat CPU 0 instructions: 80000001 cycles: 20000063 heartbeat IPC: 4 cumulative IPC: 3.99999 (Simulation time: 0 hr 7 min 9 sec) 
Heartbeat CPU 0 instructions: 90000001 cycles: 22500063 heartbeat IPC: 4 cumulative IPC: 3.99999 (Simulation time: 0 hr 7 min 50 sec) 
Heartbeat CPU 0 instructions: 100000001 cycles: 25000063 heartbeat IPC: 4 cumulative IPC: 3.99999 (Simulation time: 0 hr 8 min 51 sec) 
Heartbeat CPU 0 instructions: 110000001 cycles: 27500063 heartbeat IPC: 4 cumulative IPC: 3.99999 (Simulation time: 0 hr 9 min 52 sec) 
Heartbeat CPU 0 instructions: 120000001 cycles: 30000063 heartbeat IPC: 4 cumulative IPC: 3.99999 (Simulation time: 0 hr 10 min 34 sec) 
Heartbeat CPU 0 instructions: 130000001 cycles: 32500063 heartbeat IPC: 4 cumulative IPC: 3.99999 (Simulation time: 0 hr 11 min 31 sec) 
Heartbeat CPU 0 instructions: 140000001 cycles: 35000063 heartbeat IPC: 4 cumulative IPC: 3.99999 (Simulation time: 0 hr 12 min 29 sec) 
Heartbeat CPU 0 instructions: 150000001 cycles: 37500063 heartbeat IPC: 4 cumulative IPC: 3.99999 (Simulation time: 0 hr 13 min 18 sec) 
Heartbeat CPU 0 instructions: 160000001 cycles: 40000063 heartbeat IPC: 4 cumulative IPC: 3.99999 (Simulation time: 0 hr 13 min 56 sec) 
Heartbeat CPU 0 instructions: 170000001 cycles: 42500063 heartbeat IPC: 4 cumulative IPC: 3.99999 (Simulation time: 0 hr 14 min 58 sec) 
Heartbeat CPU 0 instructions: 180000001 cycles: 45000063 heartbeat IPC: 4 cumulative IPC: 3.99999 (Simulation time: 0 hr 15 min 59 sec) 
Heartbeat CPU 0 instructions: 190000001 cycles: 47500063 heartbeat IPC: 4 cumulative IPC: 3.99999 (Simulation time: 0 hr 17 min 1 sec) 
Heartbeat CPU 0 instructions: 200000001 cycles: 50000063 heartbeat IPC: 4 cumulative IPC: 3.99999 (Simulation time: 0 hr 18 min 3 sec) 
Heartbeat CPU 0 instructions: 210000001 cycles: 52500063 heartbeat IPC: 4 cumulative IPC: 4 (Simulation time: 0 hr 19 min 5 sec) 
Heartbeat CPU 0 instructions: 220000001 cycles: 55000063 heartbeat IPC: 4 cumulative IPC: 4 (Simulation time: 0 hr 20 min 7 sec) 
Heartbeat CPU 0 instructions: 230000001 cycles: 57500063 heartbeat IPC: 4 cumulative IPC: 4 (Simulation time: 0 hr 21 min 3 sec) 
Heartbeat CPU 0 instructions: 240000001 cycles: 60000063 heartbeat IPC: 4 cumulative IPC: 4 (Simulation time: 0 hr 21 min 48 sec) 
Heartbeat CPU 0 instructions: 250000001 cycles: 62500063 heartbeat IPC: 4 cumulative IPC: 4 (Simulation time: 0 hr 22 min 37 sec) 
Heartbeat CPU 0 instructions: 260000001 cycles: 65000063 heartbeat IPC: 4 cumulative IPC: 4 (Simulation time: 0 hr 23 min 23 sec) 
Heartbeat CPU 0 instructions: 270000001 cycles: 67500063 heartbeat IPC: 4 cumulative IPC: 4 (Simulation time: 0 hr 24 min 10 sec) 
Heartbeat CPU 0 instructions: 280000001 cycles: 70000063 heartbeat IPC: 4 cumulative IPC: 4 (Simulation time: 0 hr 24 min 46 sec) 
Heartbeat CPU 0 instructions: 290000001 cycles: 72500063 heartbeat IPC: 4 cumulative IPC: 4 (Simulation time: 0 hr 25 min 28 sec) 
Heartbeat CPU 0 instructions: 300000001 cycles: 75000063 heartbeat IPC: 4 cumulative IPC: 4 (Simulation time: 0 hr 26 min 30 sec) 
Heartbeat CPU 0 instructions: 310000001 cycles: 77500063 heartbeat IPC: 4 cumulative IPC: 4 (Simulation time: 0 hr 27 min 15 sec) 
Heartbeat CPU 0 instructions: 320000001 cycles: 80000063 heartbeat IPC: 4 cumulative IPC: 4 (Simulation time: 0 hr 27 min 51 sec) 
Heartbeat CPU 0 instructions: 330000001 cycles: 82500063 heartbeat IPC: 4 cumulative IPC: 4 (Simulation time: 0 hr 28 min 30 sec) 
Heartbeat CPU 0 instructions: 340000001 cycles: 85000063 heartbeat IPC: 4 cumulative IPC: 4 (Simulation time: 0 hr 29 min 6 sec) 
Heartbeat CPU 0 instructions: 350000001 cycles: 87500063 heartbeat IPC: 4 cumulative IPC: 4 (Simulation time: 0 hr 29 min 43 sec) 
Heartbeat CPU 0 instructions: 360000001 cycles: 90000063 heartbeat IPC: 4 cumulative IPC: 4 (Simulation time: 0 hr 30 min 19 sec) 
Heartbeat CPU 0 instructions: 370000001 cycles: 92500063 heartbeat IPC: 4 cumulative IPC: 4 (Simulation time: 0 hr 30 min 57 sec) 
Heartbeat CPU 0 instructions: 380000001 cycles: 95000063 heartbeat IPC: 4 cumulative IPC: 4 (Simulation time: 0 hr 31 min 38 sec) 
Heartbeat CPU 0 instructions: 390000001 cycles: 97500063 heartbeat IPC: 4 cumulative IPC: 4 (Simulation time: 0 hr 32 min 22 sec) 
Heartbeat CPU 0 instructions: 400000001 cycles: 100000063 heartbeat IPC: 4 cumulative IPC: 4 (Simulation time: 0 hr 33 min 20 sec) 
Heartbeat CPU 0 instructions: 410000001 cycles: 102500063 heartbeat IPC: 4 cumulative IPC: 4 (Simulation time: 0 hr 34 min 23 sec) 
Heartbeat CPU 0 instructions: 420000001 cycles: 105000063 heartbeat IPC: 4 cumulative IPC: 4 (Simulation time: 0 hr 35 min 5 sec) 
Heartbeat CPU 0 instructions: 430000001 cycles: 107500063 heartbeat IPC: 4 cumulative IPC: 4 (Simulation time: 0 hr 35 min 45 sec) 
Heartbeat CPU 0 instructions: 440000001 cycles: 110000063 heartbeat IPC: 4 cumulative IPC: 4 (Simulation time: 0 hr 36 min 23 sec) 
Heartbeat CPU 0 instructions: 450000001 cycles: 112500063 heartbeat IPC: 4 cumulative IPC: 4 (Simulation time: 0 hr 37 min 16 sec) 
Heartbeat CPU 0 instructions: 460000003 cycles: 115141357 heartbeat IPC: 3.78602 cumulative IPC: 3.99509 (Simulation time: 0 hr 37 min 55 sec) 
Heartbeat CPU 0 instructions: 470000001 cycles: 118537938 heartbeat IPC: 2.94414 cumulative IPC: 3.96498 (Simulation time: 0 hr 38 min 22 sec) 
Heartbeat CPU 0 instructions: 480000002 cycles: 121936419 heartbeat IPC: 2.94249 cumulative IPC: 3.93648 (Simulation time: 0 hr 38 min 52 sec) 
Heartbeat CPU 0 instructions: 490000004 cycles: 125334504 heartbeat IPC: 2.94283 cumulative IPC: 3.90954 (Simulation time: 0 hr 39 min 22 sec) 
Heartbeat CPU 0 instructions: 500000002 cycles: 128733269 heartbeat IPC: 2.94224 cumulative IPC: 3.884 (Simulation time: 0 hr 39 min 50 sec) 

Warmup complete CPU 0 instructions: 500000002 cycles: 128733269 (Simulation time: 0 hr 39 min 50 sec) 

Heartbeat CPU 0 instructions: 510000000 cycles: 159746086 heartbeat IPC: 0.322447 cumulative IPC: 0.322447 (Simulation time: 0 hr 43 min 24 sec) 
Heartbeat CPU 0 instructions: 520000000 cycles: 190715921 heartbeat IPC: 0.322895 cumulative IPC: 0.322671 (Simulation time: 0 hr 46 min 47 sec) 
Heartbeat CPU 0 instructions: 530000000 cycles: 221692782 heartbeat IPC: 0.322822 cumulative IPC: 0.322721 (Simulation time: 0 hr 51 min 30 sec) 
Heartbeat CPU 0 instructions: 540000001 cycles: 281837762 heartbeat IPC: 0.166265 cumulative IPC: 0.261259 (Simulation time: 1 hr 3 min 13 sec) 
Heartbeat CPU 0 instructions: 550000001 cycles: 303971950 heartbeat IPC: 0.45179 cumulative IPC: 0.285325 (Simulation time: 1 hr 6 min 47 sec) 
Heartbeat CPU 0 instructions: 560000001 cycles: 326116725 heartbeat IPC: 0.451574 cumulative IPC: 0.303977 (Simulation time: 1 hr 11 min 2 sec) 
Heartbeat CPU 0 instructions: 570000001 cycles: 348229731 heartbeat IPC: 0.452223 cumulative IPC: 0.318912 (Simulation time: 1 hr 14 min 48 sec) 
Heartbeat CPU 0 instructions: 580000001 cycles: 370343215 heartbeat IPC: 0.452213 cumulative IPC: 0.331112 (Simulation time: 1 hr 17 min 47 sec) 
Heartbeat CPU 0 instructions: 590000001 cycles: 392463523 heartbeat IPC: 0.452073 cumulative IPC: 0.341258 (Simulation time: 1 hr 21 min 15 sec) 
Heartbeat CPU 0 instructions: 600000001 cycles: 414595509 heartbeat IPC: 0.451835 cumulative IPC: 0.349819 (Simulation time: 1 hr 25 min 7 sec) 
Heartbeat CPU 0 instructions: 610000001 cycles: 436733928 heartbeat IPC: 0.451703 cumulative IPC: 0.357142 (Simulation time: 1 hr 28 min 29 sec) 
Heartbeat CPU 0 instructions: 620000001 cycles: 458860527 heartbeat IPC: 0.451945 cumulative IPC: 0.363496 (Simulation time: 1 hr 33 min 28 sec) 
Heartbeat CPU 0 instructions: 630000001 cycles: 480997311 heartbeat IPC: 0.451737 cumulative IPC: 0.369041 (Simulation time: 1 hr 38 min 10 sec) 
Heartbeat CPU 0 instructions: 640000001 cycles: 503119281 heartbeat IPC: 0.452039 cumulative IPC: 0.373946 (Simulation time: 1 hr 41 min 19 sec) 
Heartbeat CPU 0 instructions: 650000003 cycles: 524947151 heartbeat IPC: 0.45813 cumulative IPC: 0.378583 (Simulation time: 1 hr 44 min 34 sec) 
Heartbeat CPU 0 instructions: 660000002 cycles: 545404529 heartbeat IPC: 0.488821 cumulative IPC: 0.383996 (Simulation time: 1 hr 46 min 23 sec) 
Heartbeat CPU 0 instructions: 670000002 cycles: 565873208 heartbeat IPC: 0.488551 cumulative IPC: 0.388891 (Simulation time: 1 hr 48 min 25 sec) 
Heartbeat CPU 0 instructions: 680000003 cycles: 585910332 heartbeat IPC: 0.499074 cumulative IPC: 0.393721 (Simulation time: 1 hr 50 min 9 sec) 
Heartbeat CPU 0 instructions: 690000003 cycles: 605971817 heartbeat IPC: 0.498468 cumulative IPC: 0.398124 (Simulation time: 1 hr 52 min 10 sec) 
Heartbeat CPU 0 instructions: 700000001 cycles: 626399015 heartbeat IPC: 0.489543 cumulative IPC: 0.401876 (Simulation time: 1 hr 54 min 8 sec) 
Heartbeat CPU 0 instructions: 710000000 cycles: 647225520 heartbeat IPC: 0.480157 cumulative IPC: 0.405021 (Simulation time: 1 hr 56 min 38 sec) 
Heartbeat CPU 0 instructions: 720000003 cycles: 669014055 heartbeat IPC: 0.458957 cumulative IPC: 0.407196 (Simulation time: 1 hr 58 min 10 sec) 
Heartbeat CPU 0 instructions: 730000000 cycles: 690659469 heartbeat IPC: 0.461991 cumulative IPC: 0.409306 (Simulation time: 1 hr 59 min 42 sec) 
Heartbeat CPU 0 instructions: 740000002 cycles: 712284025 heartbeat IPC: 0.462437 cumulative IPC: 0.411275 (Simulation time: 2 hr 1 min 37 sec) 
Heartbeat CPU 0 instructions: 750000004 cycles: 734023065 heartbeat IPC: 0.460002 cumulative IPC: 0.413025 (Simulation time: 2 hr 3 min 29 sec) 
Heartbeat CPU 0 instructions: 760000000 cycles: 755483989 heartbeat IPC: 0.465963 cumulative IPC: 0.414838 (Simulation time: 2 hr 5 min 38 sec) 
Heartbeat CPU 0 instructions: 770000002 cycles: 776551222 heartbeat IPC: 0.474671 cumulative IPC: 0.416784 (Simulation time: 2 hr 7 min 15 sec) 
Heartbeat CPU 0 instructions: 780000003 cycles: 797640532 heartbeat IPC: 0.474174 cumulative IPC: 0.418593 (Simulation time: 2 hr 8 min 50 sec) 
Heartbeat CPU 0 instructions: 790000000 cycles: 818541310 heartbeat IPC: 0.478451 cumulative IPC: 0.420407 (Simulation time: 2 hr 10 min 40 sec) 
Heartbeat CPU 0 instructions: 800000000 cycles: 839640996 heartbeat IPC: 0.473941 cumulative IPC: 0.421996 (Simulation time: 2 hr 12 min 18 sec) 
Heartbeat CPU 0 instructions: 810000003 cycles: 860667099 heartbeat IPC: 0.475599 cumulative IPC: 0.423536 (Simulation time: 2 hr 13 min 58 sec) 
Heartbeat CPU 0 instructions: 820000002 cycles: 881753501 heartbeat IPC: 0.474239 cumulative IPC: 0.424955 (Simulation time: 2 hr 15 min 50 sec) 
Heartbeat CPU 0 instructions: 830000000 cycles: 902743757 heartbeat IPC: 0.476411 cumulative IPC: 0.426351 (Simulation time: 2 hr 17 min 28 sec) 
Heartbeat CPU 0 instructions: 840000003 cycles: 923700241 heartbeat IPC: 0.477179 cumulative IPC: 0.427691 (Simulation time: 2 hr 19 min 6 sec) 
Heartbeat CPU 0 instructions: 850000002 cycles: 945369466 heartbeat IPC: 0.461484 cumulative IPC: 0.428587 (Simulation time: 2 hr 21 min 4 sec) 
Heartbeat CPU 0 instructions: 860000003 cycles: 967125221 heartbeat IPC: 0.459649 cumulative IPC: 0.429393 (Simulation time: 2 hr 24 min 16 sec) 
Heartbeat CPU 0 instructions: 870000004 cycles: 989802873 heartbeat IPC: 0.440963 cumulative IPC: 0.429698 (Simulation time: 2 hr 26 min 19 sec) 
Heartbeat CPU 0 instructions: 880000003 cycles: 1012490177 heartbeat IPC: 0.440775 cumulative IPC: 0.429982 (Simulation time: 2 hr 28 min 10 sec) 
Heartbeat CPU 0 instructions: 890000000 cycles: 1036349251 heartbeat IPC: 0.419128 cumulative IPC: 0.429697 (Simulation time: 2 hr 30 min 1 sec) 
Heartbeat CPU 0 instructions: 900000000 cycles: 1061222431 heartbeat IPC: 0.402039 cumulative IPC: 0.428959 (Simulation time: 2 hr 31 min 51 sec) 
Heartbeat CPU 0 instructions: 910000000 cycles: 1086717854 heartbeat IPC: 0.392227 cumulative IPC: 0.427982 (Simulation time: 2 hr 33 min 45 sec) 
Heartbeat CPU 0 instructions: 920000001 cycles: 1112383637 heartbeat IPC: 0.389624 cumulative IPC: 0.426981 (Simulation time: 2 hr 35 min 42 sec) 
Heartbeat CPU 0 instructions: 930000004 cycles: 1137270102 heartbeat IPC: 0.401825 cumulative IPC: 0.42636 (Simulation time: 2 hr 37 min 40 sec) 
Heartbeat CPU 0 instructions: 940000001 cycles: 1163131900 heartbeat IPC: 0.386671 cumulative IPC: 0.425368 (Simulation time: 2 hr 39 min 59 sec) 
Heartbeat CPU 0 instructions: 950000002 cycles: 1189138446 heartbeat IPC: 0.384519 cumulative IPC: 0.424366 (Simulation time: 2 hr 42 min 6 sec) 
Heartbeat CPU 0 instructions: 960000000 cycles: 1216145712 heartbeat IPC: 0.370271 cumulative IPC: 0.423023 (Simulation time: 2 hr 44 min 19 sec) 
Heartbeat CPU 0 instructions: 970000004 cycles: 1243139480 heartbeat IPC: 0.370456 cumulative IPC: 0.421749 (Simulation time: 2 hr 46 min 51 sec) 
Heartbeat CPU 0 instructions: 980000002 cycles: 1270192551 heartbeat IPC: 0.369644 cumulative IPC: 0.420514 (Simulation time: 2 hr 48 min 55 sec) 
Heartbeat CPU 0 instructions: 990000000 cycles: 1297719524 heartbeat IPC: 0.36328 cumulative IPC: 0.419167 (Simulation time: 2 hr 51 min 1 sec) 
Heartbeat CPU 0 instructions: 1000000001 cycles: 1325457535 heartbeat IPC: 0.360516 cumulative IPC: 0.417807 (Simulation time: 2 hr 53 min 18 sec) 
Heartbeat CPU 0 instructions: 1010000002 cycles: 1354147390 heartbeat IPC: 0.348555 cumulative IPC: 0.416186 (Simulation time: 2 hr 55 min 32 sec) 
Heartbeat CPU 0 instructions: 1020000002 cycles: 1381018764 heartbeat IPC: 0.372143 cumulative IPC: 0.415241 (Simulation time: 2 hr 57 min 54 sec) 
Heartbeat CPU 0 instructions: 1030000004 cycles: 1407579219 heartbeat IPC: 0.3765 cumulative IPC: 0.414436 (Simulation time: 3 hr 0 min 14 sec) 
Heartbeat CPU 0 instructions: 1040000004 cycles: 1436995184 heartbeat IPC: 0.339951 cumulative IPC: 0.412761 (Simulation time: 3 hr 2 min 56 sec) 
Heartbeat CPU 0 instructions: 1050000000 cycles: 1463605478 heartbeat IPC: 0.375794 cumulative IPC: 0.412024 (Simulation time: 3 hr 5 min 9 sec) 
Heartbeat CPU 0 instructions: 1060000001 cycles: 1492788718 heartbeat IPC: 0.342662 cumulative IPC: 0.41054 (Simulation time: 3 hr 7 min 24 sec) 
Heartbeat CPU 0 instructions: 1070000002 cycles: 1522653833 heartbeat IPC: 0.334839 cumulative IPC: 0.408919 (Simulation time: 3 hr 9 min 46 sec) 
Heartbeat CPU 0 instructions: 1080000003 cycles: 1551201974 heartbeat IPC: 0.350286 cumulative IPC: 0.407742 (Simulation time: 3 hr 12 min 6 sec) 
Heartbeat CPU 0 instructions: 1090000000 cycles: 1580521399 heartbeat IPC: 0.341071 cumulative IPC: 0.406395 (Simulation time: 3 hr 14 min 26 sec) 
Heartbeat CPU 0 instructions: 1100000003 cycles: 1609461527 heartbeat IPC: 0.345541 cumulative IPC: 0.405206 (Simulation time: 3 hr 16 min 50 sec) 
Heartbeat CPU 0 instructions: 1110000002 cycles: 1639726361 heartbeat IPC: 0.330416 cumulative IPC: 0.403708 (Simulation time: 3 hr 19 min 14 sec) 
Heartbeat CPU 0 instructions: 1120000002 cycles: 1672588641 heartbeat IPC: 0.3043 cumulative IPC: 0.401592 (Simulation time: 3 hr 21 min 42 sec) 
Heartbeat CPU 0 instructions: 1130000000 cycles: 1704916836 heartbeat IPC: 0.309327 cumulative IPC: 0.3997 (Simulation time: 3 hr 24 min 13 sec) 
Heartbeat CPU 0 instructions: 1140000004 cycles: 1735816350 heartbeat IPC: 0.32363 cumulative IPC: 0.398237 (Simulation time: 3 hr 26 min 43 sec) 
Heartbeat CPU 0 instructions: 1150000001 cycles: 1769460449 heartbeat IPC: 0.297229 cumulative IPC: 0.396166 (Simulation time: 3 hr 29 min 15 sec) 
Heartbeat CPU 0 instructions: 1160000003 cycles: 1802507783 heartbeat IPC: 0.302596 cumulative IPC: 0.394318 (Simulation time: 3 hr 31 min 50 sec) 
Heartbeat CPU 0 instructions: 1170000003 cycles: 1835706980 heartbeat IPC: 0.301212 cumulative IPC: 0.392508 (Simulation time: 3 hr 34 min 27 sec) 
Heartbeat CPU 0 instructions: 1180000001 cycles: 1871743242 heartbeat IPC: 0.277498 cumulative IPC: 0.39013 (Simulation time: 3 hr 37 min 7 sec) 
Heartbeat CPU 0 instructions: 1190000003 cycles: 1906981806 heartbeat IPC: 0.28378 cumulative IPC: 0.388022 (Simulation time: 3 hr 39 min 50 sec) 
Heartbeat CPU 0 instructions: 1200000002 cycles: 1945769551 heartbeat IPC: 0.257813 cumulative IPC: 0.385243 (Simulation time: 3 hr 42 min 37 sec) 
Heartbeat CPU 0 instructions: 1210000002 cycles: 1982424501 heartbeat IPC: 0.272814 cumulative IPC: 0.38302 (Simulation time: 3 hr 45 min 28 sec) 
Heartbeat CPU 0 instructions: 1220000000 cycles: 2019222589 heartbeat IPC: 0.271753 cumulative IPC: 0.380854 (Simulation time: 3 hr 48 min 21 sec) 
Heartbeat CPU 0 instructions: 1230000003 cycles: 2055324910 heartbeat IPC: 0.276991 cumulative IPC: 0.378908 (Simulation time: 3 hr 51 min 15 sec) 
Heartbeat CPU 0 instructions: 1240000004 cycles: 2092013056 heartbeat IPC: 0.272568 cumulative IPC: 0.37692 (Simulation time: 3 hr 54 min 8 sec) 
Heartbeat CPU 0 instructions: 1250000004 cycles: 2131610151 heartbeat IPC: 0.252544 cumulative IPC: 0.374461 (Simulation time: 3 hr 57 min 6 sec) 
Heartbeat CPU 0 instructions: 1260000000 cycles: 2171326744 heartbeat IPC: 0.251784 cumulative IPC: 0.372076 (Simulation time: 4 hr 0 min 8 sec) 
Heartbeat CPU 0 instructions: 1270000001 cycles: 2213465778 heartbeat IPC: 0.23731 cumulative IPC: 0.369352 (Simulation time: 4 hr 3 min 13 sec) 
Heartbeat CPU 0 instructions: 1280000000 cycles: 2252656999 heartbeat IPC: 0.255159 cumulative IPC: 0.367245 (Simulation time: 4 hr 6 min 19 sec) 
Heartbeat CPU 0 instructions: 1290000000 cycles: 2293963845 heartbeat IPC: 0.242091 cumulative IPC: 0.364857 (Simulation time: 4 hr 9 min 24 sec) 
Heartbeat CPU 0 instructions: 1300000004 cycles: 2334337161 heartbeat IPC: 0.247688 cumulative IPC: 0.362712 (Simulation time: 4 hr 12 min 34 sec) 
Heartbeat CPU 0 instructions: 1310000001 cycles: 2376010159 heartbeat IPC: 0.239963 cumulative IPC: 0.360436 (Simulation time: 4 hr 15 min 42 sec) 
Heartbeat CPU 0 instructions: 1320000004 cycles: 2418366052 heartbeat IPC: 0.236095 cumulative IPC: 0.358136 (Simulation time: 4 hr 18 min 57 sec) 
Heartbeat CPU 0 instructions: 1330000000 cycles: 2462424065 heartbeat IPC: 0.226973 cumulative IPC: 0.35566 (Simulation time: 4 hr 22 min 12 sec) 
Heartbeat CPU 0 instructions: 1340000002 cycles: 2503868060 heartbeat IPC: 0.24129 cumulative IPC: 0.353664 (Simulation time: 4 hr 25 min 26 sec) 
Heartbeat CPU 0 instructions: 1350000003 cycles: 2542293914 heartbeat IPC: 0.260241 cumulative IPC: 0.352177 (Simulation time: 4 hr 28 min 38 sec) 
Heartbeat CPU 0 instructions: 1360000003 cycles: 2585369418 heartbeat IPC: 0.232151 cumulative IPC: 0.350072 (Simulation time: 4 hr 31 min 52 sec) 
Heartbeat CPU 0 instructions: 1370000004 cycles: 2627927749 heartbeat IPC: 0.234972 cumulative IPC: 0.348112 (Simulation time: 4 hr 35 min 9 sec) 
Heartbeat CPU 0 instructions: 1380000002 cycles: 2671719521 heartbeat IPC: 0.228353 cumulative IPC: 0.34605 (Simulation time: 4 hr 38 min 29 sec) 
Heartbeat CPU 0 instructions: 1390000003 cycles: 2718660077 heartbeat IPC: 0.213035 cumulative IPC: 0.343639 (Simulation time: 4 hr 41 min 52 sec) 
Heartbeat CPU 0 instructions: 1400000002 cycles: 2763247147 heartbeat IPC: 0.22428 cumulative IPC: 0.341619 (Simulation time: 4 hr 45 min 16 sec) 
Heartbeat CPU 0 instructions: 1410000003 cycles: 2808998366 heartbeat IPC: 0.218573 cumulative IPC: 0.339519 (Simulation time: 4 hr 48 min 43 sec) 
Heartbeat CPU 0 instructions: 1420000004 cycles: 2851985202 heartbeat IPC: 0.232629 cumulative IPC: 0.337831 (Simulation time: 4 hr 52 min 11 sec) 
Heartbeat CPU 0 instructions: 1430000003 cycles: 2903469484 heartbeat IPC: 0.194234 cumulative IPC: 0.335167 (Simulation time: 4 hr 55 min 44 sec) 
Heartbeat CPU 0 instructions: 1440000000 cycles: 2955245271 heartbeat IPC: 0.19314 cumulative IPC: 0.332565 (Simulation time: 4 hr 59 min 21 sec) 
Heartbeat CPU 0 instructions: 1450000002 cycles: 3006303703 heartbeat IPC: 0.195854 cumulative IPC: 0.33014 (Simulation time: 5 hr 3 min 4 sec) 
Heartbeat CPU 0 instructions: 1460000004 cycles: 3058629051 heartbeat IPC: 0.191112 cumulative IPC: 0.327657 (Simulation time: 5 hr 6 min 47 sec) 
Heartbeat CPU 0 instructions: 1470000000 cycles: 3110663540 heartbeat IPC: 0.19218 cumulative IPC: 0.325293 (Simulation time: 5 hr 10 min 35 sec) 
Heartbeat CPU 0 instructions: 1480000000 cycles: 3162997997 heartbeat IPC: 0.191079 cumulative IPC: 0.322978 (Simulation time: 5 hr 14 min 24 sec) 
Heartbeat CPU 0 instructions: 1490000000 cycles: 3217807695 heartbeat IPC: 0.182449 cumulative IPC: 0.320484 (Simulation time: 5 hr 18 min 15 sec) 
Heartbeat CPU 0 instructions: 1500000002 cycles: 3268474298 heartbeat IPC: 0.197369 cumulative IPC: 0.318498 (Simulation time: 5 hr 22 min 6 sec) 
Heartbeat CPU 0 instructions: 1510000002 cycles: 3316089797 heartbeat IPC: 0.210016 cumulative IPC: 0.316877 (Simulation time: 5 hr 25 min 58 sec) 
Heartbeat CPU 0 instructions: 1520000003 cycles: 3371883152 heartbeat IPC: 0.179233 cumulative IPC: 0.314509 (Simulation time: 5 hr 29 min 50 sec) 
Heartbeat CPU 0 instructions: 1530000000 cycles: 3422910849 heartbeat IPC: 0.195972 cumulative IPC: 0.312673 (Simulation time: 5 hr 33 min 49 sec) 
Heartbeat CPU 0 instructions: 1540000002 cycles: 3473953431 heartbeat IPC: 0.195915 cumulative IPC: 0.310891 (Simulation time: 5 hr 37 min 49 sec) 
Heartbeat CPU 0 instructions: 1550000002 cycles: 3525518323 heartbeat IPC: 0.19393 cumulative IPC: 0.309116 (Simulation time: 5 hr 41 min 48 sec) 
Heartbeat CPU 0 instructions: 1560000001 cycles: 3578876658 heartbeat IPC: 0.187412 cumulative IPC: 0.307234 (Simulation time: 5 hr 45 min 48 sec) 
Heartbeat CPU 0 instructions: 1570000000 cycles: 3630187685 heartbeat IPC: 0.19489 cumulative IPC: 0.305587 (Simulation time: 5 hr 49 min 51 sec) 
Heartbeat CPU 0 instructions: 1580000000 cycles: 3679487768 heartbeat IPC: 0.202839 cumulative IPC: 0.304161 (Simulation time: 5 hr 53 min 57 sec) 
Heartbeat CPU 0 instructions: 1590000002 cycles: 3736824460 heartbeat IPC: 0.174408 cumulative IPC: 0.302099 (Simulation time: 5 hr 57 min 54 sec) 
Heartbeat CPU 0 instructions: 1600000003 cycles: 3790665835 heartbeat IPC: 0.185731 cumulative IPC: 0.300388 (Simulation time: 6 hr 2 min 1 sec) 
Heartbeat CPU 0 instructions: 1610000003 cycles: 3845476987 heartbeat IPC: 0.182445 cumulative IPC: 0.298649 (Simulation time: 6 hr 6 min 7 sec) 
Heartbeat CPU 0 instructions: 1620000000 cycles: 3903577194 heartbeat IPC: 0.172116 cumulative IPC: 0.296701 (Simulation time: 6 hr 10 min 15 sec) 
Heartbeat CPU 0 instructions: 1630000004 cycles: 3959335338 heartbeat IPC: 0.179346 cumulative IPC: 0.294993 (Simulation time: 6 hr 14 min 21 sec) 
Heartbeat CPU 0 instructions: 1640000000 cycles: 4017824027 heartbeat IPC: 0.170973 cumulative IPC: 0.293128 (Simulation time: 6 hr 18 min 27 sec) 
Heartbeat CPU 0 instructions: 1650000001 cycles: 4081216636 heartbeat IPC: 0.157747 cumulative IPC: 0.290956 (Simulation time: 6 hr 22 min 28 sec) 
Heartbeat CPU 0 instructions: 1660000004 cycles: 4138599086 heartbeat IPC: 0.174269 cumulative IPC: 0.289286 (Simulation time: 6 hr 26 min 34 sec) 
Heartbeat CPU 0 instructions: 1670000002 cycles: 4195427165 heartbeat IPC: 0.175969 cumulative IPC: 0.287703 (Simulation time: 6 hr 30 min 55 sec) 
Heartbeat CPU 0 instructions: 1680000002 cycles: 4254657954 heartbeat IPC: 0.168831 cumulative IPC: 0.285996 (Simulation time: 6 hr 35 min 9 sec) 
Heartbeat CPU 0 instructions: 1690000003 cycles: 4317921484 heartbeat IPC: 0.158069 cumulative IPC: 0.284065 (Simulation time: 6 hr 39 min 12 sec) 
Heartbeat CPU 0 instructions: 1700000003 cycles: 4380996425 heartbeat IPC: 0.158542 cumulative IPC: 0.282203 (Simulation time: 6 hr 43 min 18 sec) 
Heartbeat CPU 0 instructions: 1710000000 cycles: 4444237217 heartbeat IPC: 0.158126 cumulative IPC: 0.280384 (Simulation time: 6 hr 47 min 31 sec) 
Heartbeat CPU 0 instructions: 1720000003 cycles: 4503709237 heartbeat IPC: 0.168146 cumulative IPC: 0.278859 (Simulation time: 6 hr 51 min 49 sec) 
Heartbeat CPU 0 instructions: 1730000001 cycles: 4564762157 heartbeat IPC: 0.163792 cumulative IPC: 0.277275 (Simulation time: 6 hr 56 min 8 sec) 
Heartbeat CPU 0 instructions: 1740000000 cycles: 4625247861 heartbeat IPC: 0.165328 cumulative IPC: 0.275769 (Simulation time: 7 hr 0 min 30 sec) 
Heartbeat CPU 0 instructions: 1750000004 cycles: 4687421758 heartbeat IPC: 0.160839 cumulative IPC: 0.274202 (Simulation time: 7 hr 4 min 43 sec) 
Heartbeat CPU 0 instructions: 1760000000 cycles: 4753241746 heartbeat IPC: 0.151929 cumulative IPC: 0.272461 (Simulation time: 7 hr 8 min 54 sec) 
Heartbeat CPU 0 instructions: 1770000003 cycles: 4818385324 heartbeat IPC: 0.153507 cumulative IPC: 0.270809 (Simulation time: 7 hr 13 min 7 sec) 
Heartbeat CPU 0 instructions: 1780000000 cycles: 4876731189 heartbeat IPC: 0.171392 cumulative IPC: 0.269587 (Simulation time: 7 hr 17 min 32 sec) 
Heartbeat CPU 0 instructions: 1790000001 cycles: 4939618239 heartbeat IPC: 0.159015 cumulative IPC: 0.268142 (Simulation time: 7 hr 22 min 1 sec) 
Heartbeat CPU 0 instructions: 1800000003 cycles: 5002484254 heartbeat IPC: 0.159068 cumulative IPC: 0.266735 (Simulation time: 7 hr 26 min 26 sec) 
Heartbeat CPU 0 instructions: 1810000001 cycles: 5068322893 heartbeat IPC: 0.151886 cumulative IPC: 0.265204 (Simulation time: 7 hr 30 min 53 sec) 
Heartbeat CPU 0 instructions: 1820000000 cycles: 5129959780 heartbeat IPC: 0.16224 cumulative IPC: 0.263935 (Simulation time: 7 hr 35 min 32 sec) 
Heartbeat CPU 0 instructions: 1830000004 cycles: 5189881467 heartbeat IPC: 0.166885 cumulative IPC: 0.262786 (Simulation time: 7 hr 40 min 18 sec) 
Heartbeat CPU 0 instructions: 1840000000 cycles: 5254517775 heartbeat IPC: 0.154712 cumulative IPC: 0.261423 (Simulation time: 7 hr 44 min 53 sec) 
Heartbeat CPU 0 instructions: 1850000004 cycles: 5319948275 heartbeat IPC: 0.152834 cumulative IPC: 0.260055 (Simulation time: 7 hr 49 min 26 sec) 
Heartbeat CPU 0 instructions: 1860000000 cycles: 5381218904 heartbeat IPC: 0.16321 cumulative IPC: 0.258925 (Simulation time: 7 hr 54 min 11 sec) 
Heartbeat CPU 0 instructions: 1870000004 cycles: 5443577304 heartbeat IPC: 0.160363 cumulative IPC: 0.257769 (Simulation time: 7 hr 58 min 55 sec) 
Heartbeat CPU 0 instructions: 1880000000 cycles: 5504062543 heartbeat IPC: 0.16533 cumulative IPC: 0.256728 (Simulation time: 8 hr 3 min 46 sec) 
Heartbeat CPU 0 instructions: 1890000002 cycles: 5566351243 heartbeat IPC: 0.160543 cumulative IPC: 0.255627 (Simulation time: 8 hr 8 min 32 sec) 
Heartbeat CPU 0 instructions: 1900000000 cycles: 5629118346 heartbeat IPC: 0.159319 cumulative IPC: 0.254528 (Simulation time: 8 hr 13 min 21 sec) 
Heartbeat CPU 0 instructions: 1910000001 cycles: 5691123003 heartbeat IPC: 0.161278 cumulative IPC: 0.253488 (Simulation time: 8 hr 18 min 17 sec) 
Heartbeat CPU 0 instructions: 1920000004 cycles: 5756619260 heartbeat IPC: 0.152681 cumulative IPC: 0.252315 (Simulation time: 8 hr 23 min 3 sec) 
Heartbeat CPU 0 instructions: 1930000002 cycles: 5819068663 heartbeat IPC: 0.16013 cumulative IPC: 0.251303 (Simulation time: 8 hr 28 min 1 sec) 
Heartbeat CPU 0 instructions: 1940000000 cycles: 5885122545 heartbeat IPC: 0.151392 cumulative IPC: 0.250157 (Simulation time: 8 hr 32 min 47 sec) 
Heartbeat CPU 0 instructions: 1950000003 cycles: 5948385278 heartbeat IPC: 0.158071 cumulative IPC: 0.249156 (Simulation time: 8 hr 37 min 49 sec) 
Heartbeat CPU 0 instructions: 1960000003 cycles: 6014512970 heartbeat IPC: 0.151223 cumulative IPC: 0.248056 (Simulation time: 8 hr 42 min 42 sec) 
Heartbeat CPU 0 instructions: 1970000002 cycles: 6078694507 heartbeat IPC: 0.155808 cumulative IPC: 0.24706 (Simulation time: 8 hr 47 min 48 sec) 
Heartbeat CPU 0 instructions: 1980000000 cycles: 6145699004 heartbeat IPC: 0.149244 cumulative IPC: 0.245971 (Simulation time: 8 hr 52 min 43 sec) 
Heartbeat CPU 0 instructions: 1990000004 cycles: 6214157855 heartbeat IPC: 0.146073 cumulative IPC: 0.244847 (Simulation time: 8 hr 57 min 33 sec) 
*** Reached end of trace: traces/605.mcf_s-1536B.champsimtrace.xz
Heartbeat CPU 0 instructions: 2000000000 cycles: 6280603801 heartbeat IPC: 0.150498 cumulative IPC: 0.243828 (Simulation time: 9 hr 2 min 34 sec) 
Finished CPU 0 instructions: 1500000003 cycles: 6151870533 cumulative IPC: 0.243828 (Simulation time: 9 hr 2 min 34 sec) 

ChampSim completed all CPUs

Region of Interest Statistics

CPU 0 cumulative IPC: 0.243828 instructions: 1500000003 cycles: 6151870533
cpu0_DTLB TOTAL     ACCESS:  503312942  HIT:  497205491  MISS:    6107451
cpu0_DTLB LOAD      ACCESS:  423828150  HIT:  417960953  MISS:    5867197
cpu0_DTLB RFO       ACCESS:   79484792  HIT:   79244538  MISS:     240254
cpu0_DTLB PREFETCH  ACCESS:          0  HIT:          0  MISS:          0
cpu0_DTLB WRITEBACK ACCESS:          0  HIT:          0  MISS:          0
cpu0_DTLB TRANSLATION ACCESS:          0  HIT:          0  MISS:          0
cpu0_DTLB PREFETCH  REQUESTED:          0  ISSUED:          0  USEFUL:          0  USELESS:          0
cpu0_DTLB AVERAGE MISS LATENCY: 15.5723 cycles
cpu0_ITLB TOTAL     ACCESS:  130440824  HIT:  130440808  MISS:         16
cpu0_ITLB LOAD      ACCESS:  130440824  HIT:  130440808  MISS:         16
cpu0_ITLB RFO       ACCESS:          0  HIT:          0  MISS:          0
cpu0_ITLB PREFETCH  ACCESS:          0  HIT:          0  MISS:          0
cpu0_ITLB WRITEBACK ACCESS:          0  HIT:          0  MISS:          0
cpu0_ITLB TRANSLATION ACCESS:          0  HIT:          0  MISS:          0
cpu0_ITLB PREFETCH  REQUESTED:          0  ISSUED:          0  USEFUL:          0  USELESS:          0
cpu0_ITLB AVERAGE MISS LATENCY: 238.25 cycles
cpu0_L1I TOTAL     ACCESS:  193281491  HIT:  193281350  MISS:        141
cpu0_L1I LOAD      ACCESS:  193281491  HIT:  193281350  MISS:        141
cpu0_L1I RFO       ACCESS:          0  HIT:          0  MISS:          0
cpu0_L1I PREFETCH  ACCESS:          0  HIT:          0  MISS:          0
cpu0_L1I WRITEBACK ACCESS:          0  HIT:          0  MISS:          0
cpu0_L1I TRANSLATION ACCESS:          0  HIT:          0  MISS:          0
cpu0_L1I PREFETCH  REQUESTED:          0  ISSUED:          0  USEFUL:          0  USELESS:          0
cpu0_L1I AVERAGE MISS LATENCY: 266 cycles
cpu0_STLB TOTAL     ACCESS:    6107467  HIT:    5888910  MISS:     218557
cpu0_STLB LOAD      ACCESS:    5867213  HIT:    5746210  MISS:     121003
cpu0_STLB RFO       ACCESS:     240254  HIT:     142700  MISS:      97554
cpu0_STLB PREFETCH  ACCESS:          0  HIT:          0  MISS:          0
cpu0_STLB WRITEBACK ACCESS:          0  HIT:          0  MISS:          0
cpu0_STLB TRANSLATION ACCESS:          0  HIT:          0  MISS:          0
cpu0_STLB PREFETCH  REQUESTED:          0  ISSUED:          0  USEFUL:          0  USELESS:          0
cpu0_STLB AVERAGE MISS LATENCY: 183.506 cycles
cpu0_L1D TOTAL     ACCESS:  508668629  HIT:  281471334  MISS:  227197295
cpu0_L1D LOAD      ACCESS:  435578988  HIT:  214753616  MISS:  220825372
cpu0_L1D RFO       ACCESS:   72872132  HIT:   66524407  MISS:    6347725
cpu0_L1D PREFETCH  ACCESS:          0  HIT:          0  MISS:          0
cpu0_L1D WRITEBACK ACCESS:          0  HIT:          0  MISS:          0
cpu0_L1D TRANSLATION ACCESS:     217509  HIT:     193311  MISS:      24198
cpu0_L1D PREFETCH  REQUESTED:          0  ISSUED:          0  USEFUL:          0  USELESS:          0
cpu0_L1D AVERAGE MISS LATENCY: 128.881 cycles
cpu0_L2C TOTAL     ACCESS:  235171474  HIT:   20202988  MISS:  214968486
cpu0_L2C LOAD      ACCESS:  220825489  HIT:   12100717  MISS:  208724772
cpu0_L2C RFO       ACCESS:    6347725  HIT:     116441  MISS:    6231284
cpu0_L2C PREFETCH  ACCESS:          0  HIT:          0  MISS:          0
cpu0_L2C WRITEBACK ACCESS:    7974062  HIT:    7966723  MISS:       7339
cpu0_L2C TRANSLATION ACCESS:      24198  HIT:      19107  MISS:       5091
cpu0_L2C PREFETCH  REQUESTED:          0  ISSUED:          0  USEFUL:          0  USELESS:          0
cpu0_L2C AVERAGE MISS LATENCY: 124.415 cycles
LLC TOTAL     ACCESS:  222776911  HIT:  138127543  MISS:   84649368
LLC LOAD      ACCESS:  208724766  HIT:  130274691  MISS:   78450075
LLC RFO       ACCESS:    6231282  HIT:      36161  MISS:    6195121
LLC PREFETCH  ACCESS:          0  HIT:          0  MISS:          0
LLC WRITEBACK ACCESS:    7815772  HIT:    7814712  MISS:       1060
LLC TRANSLATION ACCESS:       5091  HIT:       1979  MISS:       3112
LLC PREFETCH  REQUESTED:          0  ISSUED:          0  USEFUL:          0  USELESS:          0
LLC AVERAGE MISS LATENCY: 262.608 cycles
~~~~~~~~~~Reuse Distance Profiler output~~~~~~~~~~
0	38837680	27934128
1	34101808	26490240
2	29573520	23628176
3	24649008	21929552
4	20196224	17432912
5	18075840	15023760
6	19483776	15963536
7	35328512	28425904
8	29868352	22420752
9	15978880	12596064
10	10367280	8259504
11	7664432	5950544
12	6878880	4921216
13	5449424	3664368
14	3842144	2471744
15	3287920	1957984
16	2801168	1618752
17	2546912	1421424
18	2043088	1189856
19	1772496	1012928
20	1788064	978304
21	1608208	805168
22	1311440	674352
23	1236160	701536
24	1168112	696848
25	928672	507856
26	782976	457040
27	808944	507856
28	807968	514224
29	701696	443424
30	658992	443600
31	565712	348320
32	712320	369472
33	533888	335552
34	451632	279200
35	462640	269152
36	442144	297408
37	436656	309488
38	368480	256240
39	331680	227952
40	319952	217712
41	314656	224976
42	273184	181072
43	261888	177776
44	291696	187168
45	249872	170176
46	211968	144352
47	202208	143280
48	234208	159360
49	194544	115104
50	161184	101808
51	166208	107392
52	155312	104144
53	186336	112192
54	169248	89328
55	356816	81952
56	1031968	86832
57	1099488	72160
58	1222336	58400
59	1711760	63792
60	2266416	86768
61	875360	67536
62	861600	54928
63	333104	63456
64	178032	117104
66	145232	96464
68	138464	92592
70	107376	66464
72	98160	61856
74	78336	42432
76	92976	49968
78	70768	41360
80	65376	34880
82	50112	25248
84	61280	32736
86	49904	26208
88	52384	27216
90	43488	20512
92	51872	22016
94	50000	22576
96	42848	17936
98	37072	17152
100	41968	21792
102	34352	17712
104	31408	13472
106	28176	13856
108	34672	17744
110	31120	16176
112	36880	20752
114	24512	11296
116	27072	13312
118	30528	18240
120	23808	11776
122	23024	13120
124	17648	8624
126	15120	7584
128	28992	16400
132	39360	30144
136	25648	17680
140	25728	19568
144	25488	20208
148	23504	19904
152	13984	11216
156	10720	8192
160	11264	9008
164	9680	7392
168	9472	7536
172	9536	7344
176	6416	4864
180	6320	5264
184	6384	4752
188	7056	6000
192	6048	4528
196	7264	5456
200	4624	3520
204	5520	4624
208	4416	3456
212	5488	4688
216	4128	3328
220	5360	4656
224	4464	3440
228	5776	4752
232	6080	5344
236	4544	3632
240	5040	4272
244	4832	3760
248	8224	7312
252	3664	2864
256	13696	11920
264	8144	6560
272	7456	6816
280	21728	20672
288	17312	15824
296	9936	8960
304	11728	10880
312	11776	11024
320	10080	9360
328	8192	7296
336	6816	6320
344	5776	5200
352	4736	4192
360	3232	2736
368	3248	2928
376	4480	4208
384	2592	2304
392	2768	2496
400	3040	2688
408	3056	2688
416	4672	4272
424	4304	3936
432	8096	7808
440	5968	5408
448	4224	3760
456	5904	5376
464	8544	8112
472	3600	3104
480	9408	9088
488	3824	3472
496	5264	5040
504	5680	5520
512	11584	11200
528	9856	9440
544	8352	7904
560	11296	10320
576	9424	8208
592	7872	7152
608	12928	12304
624	9712	8992
640	14144	13424
656	10384	9840
672	11200	10608
688	7712	7104
704	8560	8144
720	6864	6368
736	7376	6816
752	6608	5952
768	5648	5024
784	5184	4768
800	9744	9360
816	5072	4752
832	5680	5440
848	4192	3792
864	5456	5056
880	6672	6448
896	5840	5520
912	7840	7424
928	6832	6480
944	7920	7376
960	8928	8400
976	6320	5872
992	6480	5952
1008	11888	11184
1024	15200	14608
1056	15312	15008
1088	11664	11376
1120	12560	12304
1152	13360	12736
1184	12368	12160
1216	11856	11648
1248	10720	10512
1280	12928	12768
1312	8368	8208
1344	14256	14208
1376	16176	16112
1408	19360	19296
1440	10432	10320
1472	14224	14176
1504	12448	12432
1536	9952	9936
1568	14368	14304
1600	9536	9504
1632	10592	10496
1664	7408	7360
1696	16384	16352
1728	7968	7920
1760	11904	11808
1792	15504	15408
1824	12944	12912
1856	11200	11152
1888	13216	13168
1920	13936	13888
1952	18160	18080
1984	10800	10624
2016	13568	13456
2048	19152	19056
2112	71776	71744
2176	64176	64080
2240	35184	35136
2304	31008	30816
2368	26960	26832
2432	72624	72400
2496	67232	67152
2560	42432	41760
2624	70432	70352
2688	52320	52240
2752	29120	29088
2816	21568	21520
2880	28928	28784
2944	14752	14656
3008	32064	31808
3072	5360	5312
3136	33696	33472
3200	22528	22448
3264	30816	30720
3328	16864	16816
3392	21024	20960
3456	33648	33536
3520	6272	6208
3584	33376	33296
3648	20512	20400
3712	23760	23296
3776	35488	35280
3840	27056	26912
3904	33552	33504
3968	8928	8912
4032	40704	40608
4096	36000	35920
4224	44480	44416
4352	63632	63568
4480	50096	50064
4608	64528	64464
4736	72352	64592
4864	187264	40816
4992	60656	60496
5120	74768	74656
5248	50816	50656
5376	62128	61888
5504	139184	54400
5632	105232	80736
5760	51552	51504
5888	67376	67312
6016	53920	53904
6144	63920	63840
6272	75600	75552
6400	85712	85664
6528	108304	108160
6656	129840	129744
6784	127920	127872
6912	164352	164144
7040	153776	153536
7168	183424	183328
7296	144016	143872
7424	178976	178944
7552	117264	117168
7680	164800	164720
7808	163792	163696
7936	111280	111200
8064	143072	143040
8192	341792	341680
8448	296768	296672
8704	309680	309504
8960	238752	238640
9216	347040	346864
9472	251632	251504
9728	314112	312864
9984	325952	325776
10240	363184	363056
10496	323280	323152
10752	258240	258144
11008	350016	349632
11264	269424	268816
11520	369136	368960
11776	324208	323984
12032	287472	287360
12288	339520	339360
12544	351904	351824
12800	306592	306400
13056	376848	376608
13312	258032	257904
13568	407568	407392
13824	376672	376480
14080	287776	287696
14336	362032	361856
14592	332704	332000
14848	304976	304816
15104	325968	325904
15360	369424	369312
15616	392160	392032
15872	342096	341856
16128	295728	295600
16384	697264	696880
16896	718256	717600
17408	744240	743920
17920	678384	678176
18432	860592	860368
18944	824368	824096
19456	727136	726720
19968	759488	759248
20480	1009376	1008896
20992	861616	861264
21504	816448	816064
22016	819440	819088
22528	1007728	1006832
23040	1034032	1032272
23552	4780720	3515888
24064	931904	931424
24576	1078032	1077632
25088	992144	991808
25600	942208	941952
26112	920800	920576
26624	1272368	1272032
27136	910256	910000
27648	886512	886304
28160	1175712	1175440
28672	1001968	1001648
29184	1064192	1063776
29696	948160	947856
30208	1131728	1131376
30720	689152	688928
31232	800320	800096
31744	756032	755936
32256	1120960	1120656
32768	2362672	2361984
33792	1680368	1679904
34816	1290800	1290480
35840	1789216	1788880
36864	2342672	2342192
37888	2932512	2932032
38912	3290112	3289360
39936	2807264	2806880
40960	2806992	2806464
41984	2748016	2747456
43008	2534848	2534400
44032	2820208	2819424
45056	2754304	2753840
46080	2562800	2562288
47104	2815552	2815104
48128	2882912	2882464
49152	2708496	2707856
50176	2474240	2473760
51200	2921104	2920704
52224	2870128	2869712
53248	2678144	2677744
54272	3233360	3232864
55296	3299632	3299024
56320	3199792	3199120
57344	2869936	2869520
58368	3393856	3393328
59392	3201984	3201424
60416	3693360	3692800
61440	3393184	3392560
62464	3221776	3221312
63488	3053216	3052688
64512	2936752	2936336
65536	6712464	6711568
67584	8019392	8018336
69632	7861040	7860096
71680	7249520	7248544
73728	7795600	7794624
75776	8192128	8191024
77824	9609328	9608144
79872	9366736	9365712
81920	9232064	9231152
83968	644496	644400
86016	781472	781344
88064	626768	626688
90112	650288	650128
92160	609568	609456
94208	543280	543168
96256	563392	563248
98304	404688	404624
100352	427232	427152
102400	391968	391920
104448	418752	418656
106496	443552	443504
108544	525424	525376
110592	728592	728544
112640	657040	656832
114688	429824	429680
116736	280656	280640
118784	245264	245200
120832	202624	202592
122880	201120	201104
124928	260240	260224
126976	208112	208080
129024	198240	198192
131072	355760	355728
135168	357568	357488
139264	210192	210144
143360	237024	236928
147456	174064	174000
151552	151904	151792
155648	174608	174576
159744	146912	146880
163840	142560	142480
167936	101072	101072
172032	115568	115520
176128	101376	101376
180224	116464	116432
184320	113632	113632
188416	117520	117456
192512	99984	99968
196608	101712	101712
200704	119344	119312
204800	142784	142768
208896	113744	113712
212992	165088	165024
217088	123392	123360
221184	210704	210688
225280	194768	194736
229376	211504	211472
233472	172560	172512
237568	309344	309296
241664	192256	192240
245760	237248	237184
249856	209168	209088
253952	135792	135776
258048	109264	109216
262144	154896	154816
270336	73920	73888
278528	104976	104944
286720	98192	98096
294912	1488	1472
303104	2064	2064
311296	1600	1584
319488	1776	1744
327680	4224	4176
335872	4400	4368
344064	2032	2016
352256	1808	1808
360448	1696	1664
368640	5088	5072
376832	1552	1536
385024	1952	1920
393216	1968	1952
401408	2144	2128
409600	1744	1744
417792	1792	1776
425984	1888	1888
434176	2064	2032
442368	1904	1888
450560	1824	1808
458752	1840	1808
466944	1984	1952
475136	2288	2272
483328	2016	2016
491520	2016	1968
499712	2224	2208
507904	1952	1936
516096	1872	1872
524288	4336	4304
540672	4640	4608
557056	5200	5168
573440	4592	4592
589824	4384	4368
606208	4576	4528
622592	6832	6832
638976	7216	7200
655360	3952	3904
671744	6592	6592
688128	1968	1936
704512	1696	1680
720896	2144	2128
737280	1904	1872
753664	1696	1664
770048	1872	1840
786432	1776	1760
802816	1744	1712
819200	2688	2656
835584	1200	1184
851968	1360	1312
868352	6096	6096
884736	1744	1728
901120	1456	1424
917504	1280	1280
933888	2400	2400
950272	1504	1472
966656	1728	1728
983040	1568	1568
999424	1696	1696
1015808	1632	1616
1032192	1648	1648
1048576	4384	4368
1081344	4608	4560
1114112	2848	2832
1146880	3040	3040
1179648	5136	5136
1212416	3280	3264
1245184	7712	7712
1277952	2896	2896
1310720	2736	2736
1343488	4704	4688
1376256	2240	2240
1409024	2544	2544
1441792	2576	2560
1474560	2704	2704
1507328	2464	2464
1540096	2544	2544
1572864	6896	6896
1605632	2608	2608
1638400	3024	3008
1671168	3200	3200
1703936	2464	2464
1736704	1856	1856
1769472	2112	2096
1802240	1808	1808
1835008	1696	1696
1867776	1552	1552
1900544	1552	1536
1933312	1424	1424
1966080	5248	5248
1998848	1584	1552
2031616	1664	1664
2064384	1712	1712
2097152	3200	3136
2162688	3136	3120
2228224	3456	3392
2293760	5392	5344
2359296	4688	4672
2424832	2688	2688
2490368	3152	3136
2555904	3072	3072
2621440	2976	2976
2686976	3216	3216
2752512	2976	2976
2818048	3888	3872
2883584	3520	3520
2949120	3520	3488
3014656	3520	3504
3080192	4224	4192
3145728	3536	3536
3211264	3552	3536
3276800	3760	3712
3342336	4000	3984
3407872	3856	3840
3473408	3488	3488
3538944	3760	3744
3604480	3856	3856
3670016	4272	4256
3735552	4080	4080
3801088	4080	4064
3866624	4144	4144
3932160	4128	4128
3997696	4320	4320
4063232	3952	3952
4128768	5040	5040
4194304	11008	10992
4325376	8720	8720
4456448	8960	8960
4587520	11632	11632
4718592	8752	8752
4849664	9984	9952
4980736	8864	8736
5111808	9120	9120
5242880	9344	9296
5373952	9456	9440
5505024	10176	10096
5636096	11600	11488
5767168	10608	10480
5898240	11376	11312
6029312	10496	10464
6160384	10544	10464
6291456	12048	11952
6422528	13648	13408
6553600	13008	12704
6684672	12432	12352
6815744	14304	14096
6946816	15776	15312
7077888	16624	16160
7208960	14144	14032
7340032	13856	13648
7471104	13728	13600
7602176	12800	12688
7733248	14672	14480
7864320	18400	17952
7995392	16720	16576
8126464	14656	14416
8257536	12848	12832
8388608	27968	27632
8650752	30368	30000
8912896	27264	27168
9175040	31328	31296
9437184	27744	27696
9699328	30736	30624
9961472	31344	31216
10223616	31376	31248
10485760	32896	32704
10747904	30944	30944
11010048	31536	31536
11272192	32368	32288
11534336	32848	32816
11796480	33216	33152
12058624	33504	33504
12320768	34560	34560
12582912	35824	35664
12845056	36480	36352
13107200	40896	40768
13369344	36448	36368
13631488	36640	36528
13893632	36272	36256
14155776	42512	42416
14417920	66304	37552
14680064	65664	37616
14942208	35712	35552
15204352	34656	34640
15466496	34288	34288
15728640	34400	34288
15990784	33680	33680
16252928	33728	33696
16515072	33168	33168
16777216	63184	63024
17301504	61824	61600
17825792	65360	65104
18350080	69824	68832
18874368	62224	62208
19398656	62704	62624
19922944	61776	61648
20447232	65936	65392
20971520	63200	63072
21495808	66544	66128
22020096	62528	62448
22544384	64976	64496
23068672	66640	66208
23592960	62976	62704
24117248	66144	65360
24641536	69472	68640
25165824	68160	67472
25690112	70288	69392
26214400	66432	65792
26738688	61872	61856
27262976	68176	67584
27787264	62112	62032
28311552	64816	64608
28835840	67280	66592
29360128	75632	74448
29884416	60544	60512
30408704	65376	65136
30932992	65024	64624
31457280	68688	68320
31981568	68160	67536
32505856	76176	74688
33030144	69680	69088
33554432	134496	133536
34603008	129136	128768
35651584	129664	128816
36700160	135856	134688
37748736	151472	148816
38797312	156928	153968
39845888	142032	140320
40894464	148336	146192
41943040	135824	134640
42991616	131984	131280
44040192	147184	145184
45088768	135552	134336
46137344	135760	134720
47185920	127072	126688
48234496	125392	125136
49283072	125792	125520
50331648	151456	148736
51380224	128720	128272
52428800	137504	135984
53477376	132480	131264
54525952	130720	130144
55574528	127840	127264
56623104	134128	133216
57671680	134656	133712
58720256	126624	126288
59768832	132448	131472
60817408	126448	126032
61865984	129968	129072
62914560	125696	125264
63963136	135360	134064
65011712	127248	126720
66060288	126544	126048
67108864	245792	245616
69206016	247456	247136
71303168	251856	251264
73400320	270144	267664
75497472	248704	248176
77594624	267200	265200
79691776	265408	263296
81788928	256080	255056
83886080	293216	288928
85983232	359312	350480
88080384	231152	229984
90177536	201888	199760
92274688	153728	152560
94371840	111072	110384
96468992	75408	74880
98566144	47264	46448
100663296	21248	19968
102760448	7216	6640
104857600	672	640
106954752	1440	1376
109051904	25376	22512
111149056	6928	6544
113246208	9696	8992
115343360	26784	24656
117440512	30944	28080
119537664	40656	36608
121634816	39008	34976
123731968	57584	51696
125829120	64336	58400
127926272	21760	19504
130023424	39904	35760
132120576	36000	32496
134217728	24096	22016
138412032	51344	46320
142606336	13712	12752
146800640	15888	14432
150994944	30880	27872
155189248	10304	9024
159383552	1584	1472
163577856	8432	7488
167772160	6496	5840
171966464	11968	10960
176160768	7664	6800
180355072	18944	16560
184549376	13424	11744
188743680	3152	2848
192937984	15456	13728
197132288	32512	29280
201326592	5056	4336
205520896	5440	4832
209715200	8576	7552
213909504	4192	3648
218103808	5808	5056
222298112	5856	5168
226492416	1408	1312
230686720	2368	2160
234881024	5696	4864
239075328	2864	2480
243269632	2160	1968
247463936	2592	2112
251658240	3168	2816
255852544	1760	1584
260046848	3536	3136
264241152	1632	1472
268435456	5760	4992
276824064	5488	4576
285212672	3664	3280
293601280	1632	1424
301989888	1600	1456
310378496	1408	1360
318767104	1552	1424
327155712	2384	2144
335544320	672	656
343932928	688	656
352321536	480	464
360710144	1024	912
369098752	432	432
377487360	464	448
385875968	336	336
394264576	432	432
402653184	352	352
411041792	528	528
419430400	400	400
427819008	480	480
436207616	448	448
444596224	400	400
452984832	544	544
461373440	560	560
469762048	464	464
478150656	560	560
486539264	560	560
494927872	368	368
503316480	48	48
511705088	64	64
520093696	16	16
528482304	32	32
536870912	32	32
553648128	0	0
570425344	0	0
587202560	0	0
603979776	0	0
620756992	0	0
637534208	0	0
654311424	0	0
671088640	0	0
687865856	0	0
704643072	0	0
721420288	0	0
738197504	0	0
754974720	0	0
771751936	0	0
788529152	0	0
805306368	0	0
822083584	0	0
838860800	0	0
855638016	0	0
872415232	0	0
889192448	0	0
905969664	0	0
922746880	0	0
939524096	0	0
956301312	0	0
973078528	0	0
989855744	0	0
1006632960	0	0
1023410176	0	0
1040187392	0	0
1056964608	0	0
1073741824	0	0
1107296256	0	0
1140850688	0	0
1174405120	0	0
1207959552	0	0
1241513984	0	0
1275068416	0	0
1308622848	0	0
1342177280	0	0
1375731712	0	0
1409286144	0	0
1442840576	0	0
1476395008	0	0
1509949440	0	0
1543503872	0	0
1577058304	0	0
1610612736	0	0
1644167168	0	0
1677721600	0	0
1711276032	0	0
1744830464	0	0
1778384896	0	0
1811939328	0	0
1845493760	0	0
1879048192	0	0
1912602624	0	0
1946157056	0	0
1979711488	0	0
2013265920	0	0
2046820352	0	0
2080374784	0	0
2113929216	0	0
2147483648	0	0
2214592512	0	0
2281701376	0	0
2348810240	0	0
2415919104	0	0
2483027968	0	0
2550136832	0	0
2617245696	0	0
2684354560	0	0
2751463424	0	0
2818572288	0	0
2885681152	0	0
2952790016	0	0
3019898880	0	0
3087007744	0	0
3154116608	0	0
3221225472	0	0
3288334336	0	0
3355443200	0	0
3422552064	0	0
3489660928	0	0
3556769792	0	0
3623878656	0	0
3690987520	0	0
3758096384	0	0
3825205248	0	0
3892314112	0	0
3959422976	0	0
4026531840	0	0
4093640704	0	0
4160749568	0	0
4227858432	0	0
~~~~~~~~~~Reuse Distance Profiler output end~~~~~~~~~~

DRAM Statistics
 CHANNEL 0
 RQ ROW_BUFFER_HIT:   25646429  ROW_BUFFER_MISS:   59000063
 DBUS AVG_CONGESTED_CYCLE:    3.91192
 WQ ROW_BUFFER_HIT:    1042127  ROW_BUFFER_MISS:    6647615  FULL:          0


CPU 0 Branch Prediction Accuracy: 97.9035% MPKI: 3.71963 Average ROB Occupancy at Mispredict: 39.5124
Branch type MPKI
BRANCH_DIRECT_JUMP: 1.26667e-05
BRANCH_INDIRECT: 1.33333e-06
BRANCH_CONDITIONAL: 3.71957
BRANCH_DIRECT_CALL: 1.33333e-05
BRANCH_INDIRECT_CALL: 1.06667e-05
BRANCH_RETURN: 1.6e-05

