
*** ChampSim Multicore Out-of-Order Simulator ***

Warmup Instructions: 500000000
Simulation Instructions: 1500000000
Number of CPUs: 1
Off-chip DRAM Size: 4 GiB Channels: 1 Width: 64-bit Data Rate: 3200 MT/s

VirtualMemory physical capacity: 8588881920 num_ppages: 2096895
VirtualMemory page size: 4096 log2_page_size: 12

CPU 0 runs traces/605.mcf_s-782B.champsimtrace.xz
CPU 0 Bimodal branch predictor
Basic BTB sets: 1024 ways: 8 indirect buffer size: 4096 RAS size: 64
Initializing LRU.
Initializing LRU.
Initializing LRU.
Initializing LRU.
Initializing rdLRU.
Initializing LRU.
Initializing LRU.
Heartbeat CPU 0 instructions: 10000000 cycles: 3422731 heartbeat IPC: 2.92164 cumulative IPC: 2.92164 (Simulation time: 0 hr 1 min 4 sec) 
Heartbeat CPU 0 instructions: 20000003 cycles: 6865163 heartbeat IPC: 2.90492 cumulative IPC: 2.91326 (Simulation time: 0 hr 2 min 23 sec) 
Heartbeat CPU 0 instructions: 30000001 cycles: 10375067 heartbeat IPC: 2.84908 cumulative IPC: 2.89155 (Simulation time: 0 hr 3 min 49 sec) 
Heartbeat CPU 0 instructions: 40000000 cycles: 13836436 heartbeat IPC: 2.88903 cumulative IPC: 2.89092 (Simulation time: 0 hr 4 min 58 sec) 
Heartbeat CPU 0 instructions: 50000001 cycles: 17324476 heartbeat IPC: 2.86694 cumulative IPC: 2.88609 (Simulation time: 0 hr 5 min 52 sec) 
Heartbeat CPU 0 instructions: 60000003 cycles: 20768093 heartbeat IPC: 2.90392 cumulative IPC: 2.88905 (Simulation time: 0 hr 6 min 56 sec) 
Heartbeat CPU 0 instructions: 70000001 cycles: 24192786 heartbeat IPC: 2.91997 cumulative IPC: 2.89342 (Simulation time: 0 hr 8 min 16 sec) 
Heartbeat CPU 0 instructions: 80000004 cycles: 27634902 heartbeat IPC: 2.90519 cumulative IPC: 2.89489 (Simulation time: 0 hr 9 min 27 sec) 
Heartbeat CPU 0 instructions: 90000004 cycles: 31110464 heartbeat IPC: 2.87723 cumulative IPC: 2.89292 (Simulation time: 0 hr 10 min 58 sec) 
Heartbeat CPU 0 instructions: 100000002 cycles: 34549211 heartbeat IPC: 2.90804 cumulative IPC: 2.89442 (Simulation time: 0 hr 12 min 11 sec) 
Heartbeat CPU 0 instructions: 110000001 cycles: 37973069 heartbeat IPC: 2.92068 cumulative IPC: 2.89679 (Simulation time: 0 hr 13 min 32 sec) 
Heartbeat CPU 0 instructions: 120000002 cycles: 41448099 heartbeat IPC: 2.87767 cumulative IPC: 2.89519 (Simulation time: 0 hr 15 min 6 sec) 
Heartbeat CPU 0 instructions: 130000000 cycles: 44946187 heartbeat IPC: 2.8587 cumulative IPC: 2.89235 (Simulation time: 0 hr 16 min 31 sec) 
Heartbeat CPU 0 instructions: 140000002 cycles: 48395852 heartbeat IPC: 2.89883 cumulative IPC: 2.89281 (Simulation time: 0 hr 17 min 26 sec) 
Heartbeat CPU 0 instructions: 150000003 cycles: 51860145 heartbeat IPC: 2.88659 cumulative IPC: 2.89239 (Simulation time: 0 hr 18 min 22 sec) 
Heartbeat CPU 0 instructions: 160000001 cycles: 55350595 heartbeat IPC: 2.86496 cumulative IPC: 2.89066 (Simulation time: 0 hr 19 min 18 sec) 
Heartbeat CPU 0 instructions: 170000000 cycles: 58853781 heartbeat IPC: 2.85454 cumulative IPC: 2.88851 (Simulation time: 0 hr 20 min 24 sec) 
Heartbeat CPU 0 instructions: 180000004 cycles: 62357316 heartbeat IPC: 2.85426 cumulative IPC: 2.88659 (Simulation time: 0 hr 21 min 55 sec) 
Heartbeat CPU 0 instructions: 190000002 cycles: 65847645 heartbeat IPC: 2.86506 cumulative IPC: 2.88545 (Simulation time: 0 hr 22 min 48 sec) 
Heartbeat CPU 0 instructions: 200000004 cycles: 69344062 heartbeat IPC: 2.86007 cumulative IPC: 2.88417 (Simulation time: 0 hr 23 min 58 sec) 
Heartbeat CPU 0 instructions: 210000001 cycles: 72834883 heartbeat IPC: 2.86465 cumulative IPC: 2.88323 (Simulation time: 0 hr 24 min 52 sec) 
Heartbeat CPU 0 instructions: 220000000 cycles: 76321289 heartbeat IPC: 2.86828 cumulative IPC: 2.88255 (Simulation time: 0 hr 26 min 10 sec) 
Heartbeat CPU 0 instructions: 230000000 cycles: 79820498 heartbeat IPC: 2.85779 cumulative IPC: 2.88147 (Simulation time: 0 hr 27 min 44 sec) 
Heartbeat CPU 0 instructions: 240000000 cycles: 83297728 heartbeat IPC: 2.87585 cumulative IPC: 2.88123 (Simulation time: 0 hr 29 min 7 sec) 
Heartbeat CPU 0 instructions: 250000004 cycles: 86777668 heartbeat IPC: 2.87361 cumulative IPC: 2.88093 (Simulation time: 0 hr 30 min 40 sec) 
Heartbeat CPU 0 instructions: 260000001 cycles: 90246233 heartbeat IPC: 2.88304 cumulative IPC: 2.88101 (Simulation time: 0 hr 32 min 5 sec) 
Heartbeat CPU 0 instructions: 270000003 cycles: 93718287 heartbeat IPC: 2.88014 cumulative IPC: 2.88097 (Simulation time: 0 hr 33 min 0 sec) 
Heartbeat CPU 0 instructions: 280000004 cycles: 97177259 heartbeat IPC: 2.89103 cumulative IPC: 2.88133 (Simulation time: 0 hr 34 min 4 sec) 
Heartbeat CPU 0 instructions: 290000002 cycles: 100660372 heartbeat IPC: 2.87099 cumulative IPC: 2.88097 (Simulation time: 0 hr 35 min 38 sec) 
Heartbeat CPU 0 instructions: 300000001 cycles: 104096288 heartbeat IPC: 2.91043 cumulative IPC: 2.88195 (Simulation time: 0 hr 37 min 10 sec) 
Heartbeat CPU 0 instructions: 310000002 cycles: 107521934 heartbeat IPC: 2.91916 cumulative IPC: 2.88313 (Simulation time: 0 hr 38 min 42 sec) 
Heartbeat CPU 0 instructions: 320000001 cycles: 110995731 heartbeat IPC: 2.87869 cumulative IPC: 2.88299 (Simulation time: 0 hr 39 min 51 sec) 
Heartbeat CPU 0 instructions: 330000000 cycles: 114447611 heartbeat IPC: 2.89697 cumulative IPC: 2.88342 (Simulation time: 0 hr 40 min 44 sec) 
Heartbeat CPU 0 instructions: 340000000 cycles: 117887402 heartbeat IPC: 2.90715 cumulative IPC: 2.88411 (Simulation time: 0 hr 41 min 37 sec) 
Heartbeat CPU 0 instructions: 350000003 cycles: 121364525 heartbeat IPC: 2.87594 cumulative IPC: 2.88387 (Simulation time: 0 hr 42 min 31 sec) 
Heartbeat CPU 0 instructions: 360000000 cycles: 124833943 heartbeat IPC: 2.88233 cumulative IPC: 2.88383 (Simulation time: 0 hr 43 min 25 sec) 
Heartbeat CPU 0 instructions: 370000001 cycles: 128270451 heartbeat IPC: 2.90993 cumulative IPC: 2.88453 (Simulation time: 0 hr 44 min 18 sec) 
Heartbeat CPU 0 instructions: 380000000 cycles: 131702376 heartbeat IPC: 2.91382 cumulative IPC: 2.88529 (Simulation time: 0 hr 45 min 11 sec) 
Heartbeat CPU 0 instructions: 390000002 cycles: 135144420 heartbeat IPC: 2.90525 cumulative IPC: 2.8858 (Simulation time: 0 hr 46 min 4 sec) 
Heartbeat CPU 0 instructions: 400000000 cycles: 138575573 heartbeat IPC: 2.91447 cumulative IPC: 2.88651 (Simulation time: 0 hr 46 min 57 sec) 
Heartbeat CPU 0 instructions: 410000002 cycles: 142050260 heartbeat IPC: 2.87796 cumulative IPC: 2.8863 (Simulation time: 0 hr 47 min 52 sec) 
Heartbeat CPU 0 instructions: 420000004 cycles: 145502110 heartbeat IPC: 2.897 cumulative IPC: 2.88656 (Simulation time: 0 hr 48 min 46 sec) 
Heartbeat CPU 0 instructions: 430000000 cycles: 148943098 heartbeat IPC: 2.90614 cumulative IPC: 2.88701 (Simulation time: 0 hr 49 min 41 sec) 
Heartbeat CPU 0 instructions: 440000004 cycles: 152384386 heartbeat IPC: 2.90589 cumulative IPC: 2.88743 (Simulation time: 0 hr 50 min 35 sec) 
Heartbeat CPU 0 instructions: 450000004 cycles: 155840922 heartbeat IPC: 2.89307 cumulative IPC: 2.88756 (Simulation time: 0 hr 51 min 30 sec) 
Heartbeat CPU 0 instructions: 460000000 cycles: 159288841 heartbeat IPC: 2.9003 cumulative IPC: 2.88784 (Simulation time: 0 hr 52 min 41 sec) 
Heartbeat CPU 0 instructions: 470000004 cycles: 162825572 heartbeat IPC: 2.82747 cumulative IPC: 2.88652 (Simulation time: 0 hr 53 min 43 sec) 
Heartbeat CPU 0 instructions: 480000002 cycles: 166266822 heartbeat IPC: 2.90592 cumulative IPC: 2.88693 (Simulation time: 0 hr 54 min 34 sec) 
Heartbeat CPU 0 instructions: 490000003 cycles: 169684459 heartbeat IPC: 2.926 cumulative IPC: 2.88771 (Simulation time: 0 hr 55 min 50 sec) 
Heartbeat CPU 0 instructions: 500000001 cycles: 173115955 heartbeat IPC: 2.91418 cumulative IPC: 2.88824 (Simulation time: 0 hr 56 min 40 sec) 

Warmup complete CPU 0 instructions: 500000001 cycles: 173115955 (Simulation time: 0 hr 56 min 40 sec) 

Heartbeat CPU 0 instructions: 510000000 cycles: 224867511 heartbeat IPC: 0.193231 cumulative IPC: 0.193231 (Simulation time: 0 hr 59 min 34 sec) 
Heartbeat CPU 0 instructions: 520000000 cycles: 275584640 heartbeat IPC: 0.197172 cumulative IPC: 0.195182 (Simulation time: 1 hr 2 min 55 sec) 
Heartbeat CPU 0 instructions: 530000001 cycles: 331825288 heartbeat IPC: 0.177807 cumulative IPC: 0.189025 (Simulation time: 1 hr 6 min 36 sec) 
Heartbeat CPU 0 instructions: 540000000 cycles: 383755378 heartbeat IPC: 0.192567 cumulative IPC: 0.189898 (Simulation time: 1 hr 11 min 1 sec) 
Heartbeat CPU 0 instructions: 550000001 cycles: 435651940 heartbeat IPC: 0.192691 cumulative IPC: 0.19045 (Simulation time: 1 hr 13 min 48 sec) 
Heartbeat CPU 0 instructions: 560000004 cycles: 487707118 heartbeat IPC: 0.192104 cumulative IPC: 0.190724 (Simulation time: 1 hr 16 min 29 sec) 
Heartbeat CPU 0 instructions: 570000000 cycles: 539596434 heartbeat IPC: 0.192718 cumulative IPC: 0.191006 (Simulation time: 1 hr 19 min 53 sec) 
Heartbeat CPU 0 instructions: 580000002 cycles: 594504136 heartbeat IPC: 0.182124 cumulative IPC: 0.189849 (Simulation time: 1 hr 22 min 46 sec) 
Heartbeat CPU 0 instructions: 590000000 cycles: 646736725 heartbeat IPC: 0.191451 cumulative IPC: 0.190025 (Simulation time: 1 hr 26 min 6 sec) 
Heartbeat CPU 0 instructions: 600000000 cycles: 693049270 heartbeat IPC: 0.215924 cumulative IPC: 0.192332 (Simulation time: 1 hr 29 min 11 sec) 
Heartbeat CPU 0 instructions: 610000001 cycles: 740062293 heartbeat IPC: 0.212707 cumulative IPC: 0.194022 (Simulation time: 1 hr 31 min 34 sec) 
Heartbeat CPU 0 instructions: 620000002 cycles: 788157233 heartbeat IPC: 0.207922 cumulative IPC: 0.195109 (Simulation time: 1 hr 34 min 55 sec) 
Heartbeat CPU 0 instructions: 630000001 cycles: 841981825 heartbeat IPC: 0.185789 cumulative IPC: 0.194359 (Simulation time: 1 hr 37 min 40 sec) 
Heartbeat CPU 0 instructions: 640000000 cycles: 896380082 heartbeat IPC: 0.183829 cumulative IPC: 0.193567 (Simulation time: 1 hr 40 min 23 sec) 
Heartbeat CPU 0 instructions: 650000002 cycles: 951114688 heartbeat IPC: 0.1827 cumulative IPC: 0.192802 (Simulation time: 1 hr 44 min 12 sec) 
Heartbeat CPU 0 instructions: 660000001 cycles: 1005001895 heartbeat IPC: 0.185573 cumulative IPC: 0.192334 (Simulation time: 1 hr 48 min 2 sec) 
Heartbeat CPU 0 instructions: 670000001 cycles: 1057099924 heartbeat IPC: 0.191946 cumulative IPC: 0.192311 (Simulation time: 1 hr 51 min 16 sec) 
Heartbeat CPU 0 instructions: 680000000 cycles: 1106852147 heartbeat IPC: 0.200996 cumulative IPC: 0.192774 (Simulation time: 1 hr 54 min 58 sec) 
Heartbeat CPU 0 instructions: 690000003 cycles: 1153929046 heartbeat IPC: 0.212418 cumulative IPC: 0.193717 (Simulation time: 1 hr 57 min 51 sec) 
Heartbeat CPU 0 instructions: 700000001 cycles: 1205994133 heartbeat IPC: 0.192067 cumulative IPC: 0.193634 (Simulation time: 2 hr 2 min 12 sec) 
Heartbeat CPU 0 instructions: 710000001 cycles: 1263253876 heartbeat IPC: 0.174643 cumulative IPC: 0.192636 (Simulation time: 2 hr 5 min 27 sec) 
Heartbeat CPU 0 instructions: 720000001 cycles: 1312557959 heartbeat IPC: 0.202823 cumulative IPC: 0.193077 (Simulation time: 2 hr 8 min 6 sec) 
Heartbeat CPU 0 instructions: 730000002 cycles: 1361118793 heartbeat IPC: 0.205927 cumulative IPC: 0.193602 (Simulation time: 2 hr 10 min 30 sec) 
Heartbeat CPU 0 instructions: 740000002 cycles: 1411724838 heartbeat IPC: 0.197605 cumulative IPC: 0.193766 (Simulation time: 2 hr 12 min 55 sec) 
Heartbeat CPU 0 instructions: 750000001 cycles: 1461756190 heartbeat IPC: 0.199875 cumulative IPC: 0.194003 (Simulation time: 2 hr 15 min 23 sec) 
Heartbeat CPU 0 instructions: 760000001 cycles: 1509239679 heartbeat IPC: 0.2106 cumulative IPC: 0.194593 (Simulation time: 2 hr 17 min 43 sec) 
Heartbeat CPU 0 instructions: 770000000 cycles: 1555839372 heartbeat IPC: 0.214594 cumulative IPC: 0.195267 (Simulation time: 2 hr 20 min 3 sec) 
Heartbeat CPU 0 instructions: 780000004 cycles: 1601998586 heartbeat IPC: 0.216642 cumulative IPC: 0.195957 (Simulation time: 2 hr 22 min 23 sec) 
Heartbeat CPU 0 instructions: 790000001 cycles: 1647403911 heartbeat IPC: 0.220238 cumulative IPC: 0.196705 (Simulation time: 2 hr 24 min 41 sec) 
Heartbeat CPU 0 instructions: 800000000 cycles: 1696319211 heartbeat IPC: 0.204435 cumulative IPC: 0.196953 (Simulation time: 2 hr 27 min 21 sec) 
Heartbeat CPU 0 instructions: 810000000 cycles: 1744384945 heartbeat IPC: 0.208048 cumulative IPC: 0.197293 (Simulation time: 2 hr 30 min 0 sec) 
Heartbeat CPU 0 instructions: 820000001 cycles: 1790946844 heartbeat IPC: 0.214768 cumulative IPC: 0.197796 (Simulation time: 2 hr 32 min 27 sec) 
Heartbeat CPU 0 instructions: 830000001 cycles: 1836104225 heartbeat IPC: 0.221448 cumulative IPC: 0.198438 (Simulation time: 2 hr 34 min 45 sec) 
Heartbeat CPU 0 instructions: 840000000 cycles: 1882806030 heartbeat IPC: 0.214124 cumulative IPC: 0.198866 (Simulation time: 2 hr 37 min 6 sec) 
Heartbeat CPU 0 instructions: 850000000 cycles: 1930024229 heartbeat IPC: 0.211783 cumulative IPC: 0.199214 (Simulation time: 2 hr 39 min 27 sec) 
Heartbeat CPU 0 instructions: 860000004 cycles: 1981017084 heartbeat IPC: 0.196106 cumulative IPC: 0.199126 (Simulation time: 2 hr 41 min 49 sec) 
Heartbeat CPU 0 instructions: 870000002 cycles: 2030252493 heartbeat IPC: 0.203106 cumulative IPC: 0.199231 (Simulation time: 2 hr 44 min 3 sec) 
Heartbeat CPU 0 instructions: 880000003 cycles: 2079751705 heartbeat IPC: 0.202023 cumulative IPC: 0.199304 (Simulation time: 2 hr 46 min 25 sec) 
Heartbeat CPU 0 instructions: 890000000 cycles: 2130194173 heartbeat IPC: 0.198246 cumulative IPC: 0.199277 (Simulation time: 2 hr 49 min 0 sec) 
Heartbeat CPU 0 instructions: 900000002 cycles: 2189976289 heartbeat IPC: 0.167274 cumulative IPC: 0.198328 (Simulation time: 2 hr 52 min 18 sec) 
Heartbeat CPU 0 instructions: 910000001 cycles: 2244387089 heartbeat IPC: 0.183787 cumulative IPC: 0.197946 (Simulation time: 2 hr 55 min 18 sec) 
Heartbeat CPU 0 instructions: 920000002 cycles: 2293985219 heartbeat IPC: 0.201621 cumulative IPC: 0.198032 (Simulation time: 2 hr 57 min 37 sec) 
Heartbeat CPU 0 instructions: 930000000 cycles: 2345405831 heartbeat IPC: 0.194475 cumulative IPC: 0.197948 (Simulation time: 3 hr 0 min 1 sec) 
Heartbeat CPU 0 instructions: 940000002 cycles: 2397091339 heartbeat IPC: 0.193478 cumulative IPC: 0.197844 (Simulation time: 3 hr 2 min 37 sec) 
Heartbeat CPU 0 instructions: 950000000 cycles: 2445659358 heartbeat IPC: 0.205897 cumulative IPC: 0.198016 (Simulation time: 3 hr 5 min 1 sec) 
Heartbeat CPU 0 instructions: 960000004 cycles: 2496482177 heartbeat IPC: 0.196762 cumulative IPC: 0.197989 (Simulation time: 3 hr 7 min 34 sec) 
Heartbeat CPU 0 instructions: 970000001 cycles: 2545701384 heartbeat IPC: 0.203173 cumulative IPC: 0.198096 (Simulation time: 3 hr 9 min 58 sec) 
Heartbeat CPU 0 instructions: 980000004 cycles: 2590420326 heartbeat IPC: 0.223619 cumulative IPC: 0.198568 (Simulation time: 3 hr 12 min 9 sec) 
Heartbeat CPU 0 instructions: 990000004 cycles: 2644548353 heartbeat IPC: 0.184747 cumulative IPC: 0.198266 (Simulation time: 3 hr 14 min 38 sec) 
Heartbeat CPU 0 instructions: 1000000002 cycles: 2697166301 heartbeat IPC: 0.190049 cumulative IPC: 0.198094 (Simulation time: 3 hr 17 min 5 sec) 
Heartbeat CPU 0 instructions: 1010000002 cycles: 2750139306 heartbeat IPC: 0.188775 cumulative IPC: 0.197903 (Simulation time: 3 hr 19 min 32 sec) 
Heartbeat CPU 0 instructions: 1020000001 cycles: 2801530126 heartbeat IPC: 0.194587 cumulative IPC: 0.197838 (Simulation time: 3 hr 22 min 0 sec) 
Heartbeat CPU 0 instructions: 1030000000 cycles: 2855504204 heartbeat IPC: 0.185274 cumulative IPC: 0.197585 (Simulation time: 3 hr 24 min 34 sec) 
Heartbeat CPU 0 instructions: 1040000000 cycles: 2916471376 heartbeat IPC: 0.164023 cumulative IPC: 0.196839 (Simulation time: 3 hr 27 min 12 sec) 
Heartbeat CPU 0 instructions: 1050000000 cycles: 2969044160 heartbeat IPC: 0.190212 cumulative IPC: 0.196715 (Simulation time: 3 hr 29 min 46 sec) 
Heartbeat CPU 0 instructions: 1060000000 cycles: 3022131851 heartbeat IPC: 0.188368 cumulative IPC: 0.196559 (Simulation time: 3 hr 32 min 15 sec) 
Heartbeat CPU 0 instructions: 1070000004 cycles: 3076275772 heartbeat IPC: 0.184693 cumulative IPC: 0.196338 (Simulation time: 3 hr 34 min 45 sec) 
Heartbeat CPU 0 instructions: 1080000000 cycles: 3130853886 heartbeat IPC: 0.183224 cumulative IPC: 0.196096 (Simulation time: 3 hr 37 min 17 sec) 
Heartbeat CPU 0 instructions: 1090000001 cycles: 3181686082 heartbeat IPC: 0.196726 cumulative IPC: 0.196106 (Simulation time: 3 hr 39 min 41 sec) 
Heartbeat CPU 0 instructions: 1100000002 cycles: 3229604385 heartbeat IPC: 0.208689 cumulative IPC: 0.196304 (Simulation time: 3 hr 41 min 58 sec) 
Heartbeat CPU 0 instructions: 1110000001 cycles: 3279888616 heartbeat IPC: 0.198869 cumulative IPC: 0.196345 (Simulation time: 3 hr 44 min 17 sec) 
Heartbeat CPU 0 instructions: 1120000000 cycles: 3329251655 heartbeat IPC: 0.202581 cumulative IPC: 0.196443 (Simulation time: 3 hr 46 min 36 sec) 
Heartbeat CPU 0 instructions: 1130000000 cycles: 3382479677 heartbeat IPC: 0.187871 cumulative IPC: 0.196301 (Simulation time: 3 hr 49 min 7 sec) 
Heartbeat CPU 0 instructions: 1140000002 cycles: 3432646453 heartbeat IPC: 0.199335 cumulative IPC: 0.196347 (Simulation time: 3 hr 51 min 30 sec) 
Heartbeat CPU 0 instructions: 1150000001 cycles: 3485768662 heartbeat IPC: 0.188245 cumulative IPC: 0.196217 (Simulation time: 3 hr 53 min 57 sec) 
Heartbeat CPU 0 instructions: 1160000001 cycles: 3538500265 heartbeat IPC: 0.18964 cumulative IPC: 0.196114 (Simulation time: 3 hr 56 min 26 sec) 
Heartbeat CPU 0 instructions: 1170000000 cycles: 3589407763 heartbeat IPC: 0.196435 cumulative IPC: 0.196119 (Simulation time: 3 hr 58 min 49 sec) 
Heartbeat CPU 0 instructions: 1180000002 cycles: 3642190964 heartbeat IPC: 0.189454 cumulative IPC: 0.196018 (Simulation time: 4 hr 1 min 17 sec) 
Heartbeat CPU 0 instructions: 1190000000 cycles: 3693159082 heartbeat IPC: 0.196201 cumulative IPC: 0.19602 (Simulation time: 4 hr 3 min 36 sec) 
Heartbeat CPU 0 instructions: 1200000000 cycles: 3750710418 heartbeat IPC: 0.173758 cumulative IPC: 0.195662 (Simulation time: 4 hr 6 min 7 sec) 
Heartbeat CPU 0 instructions: 1210000000 cycles: 3806165241 heartbeat IPC: 0.180327 cumulative IPC: 0.195428 (Simulation time: 4 hr 8 min 35 sec) 
Heartbeat CPU 0 instructions: 1220000001 cycles: 3860905976 heartbeat IPC: 0.182679 cumulative IPC: 0.195239 (Simulation time: 4 hr 11 min 2 sec) 
Heartbeat CPU 0 instructions: 1230000002 cycles: 3916039585 heartbeat IPC: 0.181378 cumulative IPC: 0.195035 (Simulation time: 4 hr 13 min 28 sec) 
Heartbeat CPU 0 instructions: 1240000000 cycles: 3973645733 heartbeat IPC: 0.173593 cumulative IPC: 0.19471 (Simulation time: 4 hr 16 min 0 sec) 
Heartbeat CPU 0 instructions: 1250000001 cycles: 4029317349 heartbeat IPC: 0.179625 cumulative IPC: 0.194492 (Simulation time: 4 hr 18 min 26 sec) 
Heartbeat CPU 0 instructions: 1260000001 cycles: 4080395955 heartbeat IPC: 0.195777 cumulative IPC: 0.194509 (Simulation time: 4 hr 20 min 46 sec) 
Heartbeat CPU 0 instructions: 1270000002 cycles: 4135320213 heartbeat IPC: 0.182069 cumulative IPC: 0.194336 (Simulation time: 4 hr 23 min 14 sec) 
Heartbeat CPU 0 instructions: 1280000000 cycles: 4191754555 heartbeat IPC: 0.177197 cumulative IPC: 0.194096 (Simulation time: 4 hr 25 min 46 sec) 
Heartbeat CPU 0 instructions: 1290000002 cycles: 4243728422 heartbeat IPC: 0.192404 cumulative IPC: 0.194074 (Simulation time: 4 hr 28 min 6 sec) 
Heartbeat CPU 0 instructions: 1300000004 cycles: 4294095624 heartbeat IPC: 0.198542 cumulative IPC: 0.194129 (Simulation time: 4 hr 30 min 19 sec) 
Heartbeat CPU 0 instructions: 1310000002 cycles: 4344227852 heartbeat IPC: 0.199472 cumulative IPC: 0.194193 (Simulation time: 4 hr 32 min 36 sec) 
Heartbeat CPU 0 instructions: 1320000001 cycles: 4395045579 heartbeat IPC: 0.196782 cumulative IPC: 0.194224 (Simulation time: 4 hr 34 min 55 sec) 
Heartbeat CPU 0 instructions: 1330000000 cycles: 4449198717 heartbeat IPC: 0.184661 cumulative IPC: 0.194103 (Simulation time: 4 hr 37 min 21 sec) 
Heartbeat CPU 0 instructions: 1340000004 cycles: 4502909867 heartbeat IPC: 0.186181 cumulative IPC: 0.194005 (Simulation time: 4 hr 39 min 47 sec) 
Heartbeat CPU 0 instructions: 1350000000 cycles: 4553982777 heartbeat IPC: 0.195798 cumulative IPC: 0.194026 (Simulation time: 4 hr 42 min 7 sec) 
Heartbeat CPU 0 instructions: 1360000000 cycles: 4606190668 heartbeat IPC: 0.191542 cumulative IPC: 0.193996 (Simulation time: 4 hr 44 min 28 sec) 
Heartbeat CPU 0 instructions: 1370000001 cycles: 4657625647 heartbeat IPC: 0.19442 cumulative IPC: 0.194001 (Simulation time: 4 hr 46 min 47 sec) 
Heartbeat CPU 0 instructions: 1380000003 cycles: 4709849723 heartbeat IPC: 0.191483 cumulative IPC: 0.193972 (Simulation time: 4 hr 49 min 7 sec) 
Heartbeat CPU 0 instructions: 1390000000 cycles: 4764604175 heartbeat IPC: 0.182633 cumulative IPC: 0.193837 (Simulation time: 4 hr 51 min 31 sec) 
Heartbeat CPU 0 instructions: 1400000003 cycles: 4820541316 heartbeat IPC: 0.178772 cumulative IPC: 0.193656 (Simulation time: 4 hr 53 min 58 sec) 
Heartbeat CPU 0 instructions: 1410000002 cycles: 4877556612 heartbeat IPC: 0.175392 cumulative IPC: 0.193434 (Simulation time: 4 hr 56 min 27 sec) 
Heartbeat CPU 0 instructions: 1420000001 cycles: 4931260362 heartbeat IPC: 0.186207 cumulative IPC: 0.193353 (Simulation time: 4 hr 58 min 49 sec) 
Heartbeat CPU 0 instructions: 1430000000 cycles: 4983855342 heartbeat IPC: 0.190132 cumulative IPC: 0.193317 (Simulation time: 5 hr 1 min 10 sec) 
Heartbeat CPU 0 instructions: 1440000000 cycles: 5035355782 heartbeat IPC: 0.194173 cumulative IPC: 0.193327 (Simulation time: 5 hr 3 min 29 sec) 
Heartbeat CPU 0 instructions: 1450000001 cycles: 5088128122 heartbeat IPC: 0.189493 cumulative IPC: 0.193285 (Simulation time: 5 hr 5 min 48 sec) 
Heartbeat CPU 0 instructions: 1460000000 cycles: 5139793411 heartbeat IPC: 0.193554 cumulative IPC: 0.193288 (Simulation time: 5 hr 8 min 3 sec) 
Heartbeat CPU 0 instructions: 1470000001 cycles: 5199872517 heartbeat IPC: 0.166447 cumulative IPC: 0.192967 (Simulation time: 5 hr 10 min 30 sec) 
Heartbeat CPU 0 instructions: 1480000000 cycles: 5249930869 heartbeat IPC: 0.199767 cumulative IPC: 0.193034 (Simulation time: 5 hr 12 min 44 sec) 
Heartbeat CPU 0 instructions: 1490000003 cycles: 5301679016 heartbeat IPC: 0.193244 cumulative IPC: 0.193037 (Simulation time: 5 hr 15 min 2 sec) 
Heartbeat CPU 0 instructions: 1500000002 cycles: 5354822721 heartbeat IPC: 0.188169 cumulative IPC: 0.192987 (Simulation time: 5 hr 17 min 22 sec) 
Heartbeat CPU 0 instructions: 1510000001 cycles: 5405500823 heartbeat IPC: 0.197324 cumulative IPC: 0.193029 (Simulation time: 5 hr 19 min 36 sec) 
Heartbeat CPU 0 instructions: 1520000000 cycles: 5455118505 heartbeat IPC: 0.201541 cumulative IPC: 0.193109 (Simulation time: 5 hr 21 min 51 sec) 
Heartbeat CPU 0 instructions: 1530000000 cycles: 5505583863 heartbeat IPC: 0.198156 cumulative IPC: 0.193156 (Simulation time: 5 hr 24 min 7 sec) 
Heartbeat CPU 0 instructions: 1540000001 cycles: 5554089726 heartbeat IPC: 0.206161 cumulative IPC: 0.193274 (Simulation time: 5 hr 26 min 20 sec) 
Heartbeat CPU 0 instructions: 1550000000 cycles: 5606574606 heartbeat IPC: 0.190531 cumulative IPC: 0.193247 (Simulation time: 5 hr 28 min 48 sec) 
Heartbeat CPU 0 instructions: 1560000000 cycles: 5658786312 heartbeat IPC: 0.191528 cumulative IPC: 0.193231 (Simulation time: 5 hr 31 min 17 sec) 
Heartbeat CPU 0 instructions: 1570000002 cycles: 5709281822 heartbeat IPC: 0.198037 cumulative IPC: 0.193275 (Simulation time: 5 hr 33 min 42 sec) 
Heartbeat CPU 0 instructions: 1580000000 cycles: 5762452593 heartbeat IPC: 0.188073 cumulative IPC: 0.193225 (Simulation time: 5 hr 36 min 8 sec) 
Heartbeat CPU 0 instructions: 1590000002 cycles: 5817747416 heartbeat IPC: 0.180849 cumulative IPC: 0.193104 (Simulation time: 5 hr 38 min 42 sec) 
Heartbeat CPU 0 instructions: 1600000001 cycles: 5872494328 heartbeat IPC: 0.182659 cumulative IPC: 0.193004 (Simulation time: 5 hr 41 min 14 sec) 
Heartbeat CPU 0 instructions: 1610000001 cycles: 5925090528 heartbeat IPC: 0.190128 cumulative IPC: 0.192977 (Simulation time: 5 hr 43 min 42 sec) 
Heartbeat CPU 0 instructions: 1620000002 cycles: 5982722647 heartbeat IPC: 0.173514 cumulative IPC: 0.192784 (Simulation time: 5 hr 46 min 14 sec) 
Heartbeat CPU 0 instructions: 1630000000 cycles: 6036091847 heartbeat IPC: 0.187374 cumulative IPC: 0.192735 (Simulation time: 5 hr 48 min 44 sec) 
Heartbeat CPU 0 instructions: 1640000002 cycles: 6086118800 heartbeat IPC: 0.199892 cumulative IPC: 0.192795 (Simulation time: 5 hr 51 min 5 sec) 
Heartbeat CPU 0 instructions: 1650000001 cycles: 6136563035 heartbeat IPC: 0.198239 cumulative IPC: 0.192841 (Simulation time: 5 hr 53 min 29 sec) 
Heartbeat CPU 0 instructions: 1660000000 cycles: 6192268449 heartbeat IPC: 0.179516 cumulative IPC: 0.192718 (Simulation time: 5 hr 56 min 2 sec) 
Heartbeat CPU 0 instructions: 1670000002 cycles: 6245659509 heartbeat IPC: 0.187297 cumulative IPC: 0.19267 (Simulation time: 5 hr 58 min 33 sec) 
Heartbeat CPU 0 instructions: 1680000001 cycles: 6299879706 heartbeat IPC: 0.184433 cumulative IPC: 0.192598 (Simulation time: 6 hr 1 min 6 sec) 
Heartbeat CPU 0 instructions: 1690000000 cycles: 6352206507 heartbeat IPC: 0.191107 cumulative IPC: 0.192585 (Simulation time: 6 hr 3 min 33 sec) 
Heartbeat CPU 0 instructions: 1700000000 cycles: 6405696158 heartbeat IPC: 0.186952 cumulative IPC: 0.192537 (Simulation time: 6 hr 6 min 3 sec) 
Heartbeat CPU 0 instructions: 1710000001 cycles: 6458168496 heartbeat IPC: 0.190577 cumulative IPC: 0.19252 (Simulation time: 6 hr 8 min 29 sec) 
Heartbeat CPU 0 instructions: 1720000002 cycles: 6509156701 heartbeat IPC: 0.196124 cumulative IPC: 0.192549 (Simulation time: 6 hr 10 min 50 sec) 
Heartbeat CPU 0 instructions: 1730000001 cycles: 6561471106 heartbeat IPC: 0.191152 cumulative IPC: 0.192538 (Simulation time: 6 hr 13 min 16 sec) 
Heartbeat CPU 0 instructions: 1740000000 cycles: 6612499824 heartbeat IPC: 0.195968 cumulative IPC: 0.192565 (Simulation time: 6 hr 15 min 42 sec) 
Heartbeat CPU 0 instructions: 1750000000 cycles: 6666105623 heartbeat IPC: 0.186547 cumulative IPC: 0.192515 (Simulation time: 6 hr 18 min 16 sec) 
Heartbeat CPU 0 instructions: 1760000002 cycles: 6719374221 heartbeat IPC: 0.187728 cumulative IPC: 0.192476 (Simulation time: 6 hr 20 min 47 sec) 
Heartbeat CPU 0 instructions: 1770000004 cycles: 6770343849 heartbeat IPC: 0.196195 cumulative IPC: 0.192505 (Simulation time: 6 hr 23 min 11 sec) 
Heartbeat CPU 0 instructions: 1780000000 cycles: 6826722203 heartbeat IPC: 0.177373 cumulative IPC: 0.192377 (Simulation time: 6 hr 25 min 42 sec) 
Heartbeat CPU 0 instructions: 1790000004 cycles: 6882963764 heartbeat IPC: 0.177805 cumulative IPC: 0.192255 (Simulation time: 6 hr 28 min 15 sec) 
Heartbeat CPU 0 instructions: 1800000000 cycles: 6938580799 heartbeat IPC: 0.179801 cumulative IPC: 0.192152 (Simulation time: 6 hr 30 min 45 sec) 
Heartbeat CPU 0 instructions: 1810000002 cycles: 6995186148 heartbeat IPC: 0.176662 cumulative IPC: 0.192024 (Simulation time: 6 hr 33 min 19 sec) 
Heartbeat CPU 0 instructions: 1820000000 cycles: 7051587706 heartbeat IPC: 0.1773 cumulative IPC: 0.191903 (Simulation time: 6 hr 35 min 52 sec) 
Heartbeat CPU 0 instructions: 1830000002 cycles: 7105098946 heartbeat IPC: 0.186877 cumulative IPC: 0.191864 (Simulation time: 6 hr 38 min 20 sec) 
Heartbeat CPU 0 instructions: 1840000001 cycles: 7158444828 heartbeat IPC: 0.187456 cumulative IPC: 0.191831 (Simulation time: 6 hr 40 min 48 sec) 
Heartbeat CPU 0 instructions: 1850000000 cycles: 7212117460 heartbeat IPC: 0.186315 cumulative IPC: 0.191789 (Simulation time: 6 hr 43 min 16 sec) 
Heartbeat CPU 0 instructions: 1860000001 cycles: 7266517565 heartbeat IPC: 0.183823 cumulative IPC: 0.191727 (Simulation time: 6 hr 45 min 45 sec) 
Heartbeat CPU 0 instructions: 1870000001 cycles: 7323229931 heartbeat IPC: 0.176328 cumulative IPC: 0.191605 (Simulation time: 6 hr 48 min 16 sec) 
Heartbeat CPU 0 instructions: 1880000001 cycles: 7379183326 heartbeat IPC: 0.17872 cumulative IPC: 0.191505 (Simulation time: 6 hr 50 min 44 sec) 
Heartbeat CPU 0 instructions: 1890000002 cycles: 7432032020 heartbeat IPC: 0.189219 cumulative IPC: 0.191489 (Simulation time: 6 hr 53 min 9 sec) 
Heartbeat CPU 0 instructions: 1900000001 cycles: 7487325395 heartbeat IPC: 0.180853 cumulative IPC: 0.191408 (Simulation time: 6 hr 55 min 40 sec) 
Heartbeat CPU 0 instructions: 1910000002 cycles: 7542579898 heartbeat IPC: 0.180981 cumulative IPC: 0.19133 (Simulation time: 6 hr 58 min 10 sec) 
Heartbeat CPU 0 instructions: 1920000001 cycles: 7598827738 heartbeat IPC: 0.177785 cumulative IPC: 0.191227 (Simulation time: 7 hr 0 min 42 sec) 
Heartbeat CPU 0 instructions: 1930000003 cycles: 7655317509 heartbeat IPC: 0.177023 cumulative IPC: 0.19112 (Simulation time: 7 hr 3 min 14 sec) 
Heartbeat CPU 0 instructions: 1940000000 cycles: 7711368226 heartbeat IPC: 0.17841 cumulative IPC: 0.191026 (Simulation time: 7 hr 5 min 46 sec) 
Heartbeat CPU 0 instructions: 1950000000 cycles: 7767108540 heartbeat IPC: 0.179403 cumulative IPC: 0.19094 (Simulation time: 7 hr 8 min 18 sec) 
Heartbeat CPU 0 instructions: 1960000000 cycles: 7822823919 heartbeat IPC: 0.179484 cumulative IPC: 0.190857 (Simulation time: 7 hr 10 min 48 sec) 
Heartbeat CPU 0 instructions: 1970000001 cycles: 7874376933 heartbeat IPC: 0.193975 cumulative IPC: 0.190878 (Simulation time: 7 hr 13 min 10 sec) 
Heartbeat CPU 0 instructions: 1980000001 cycles: 7924006120 heartbeat IPC: 0.201494 cumulative IPC: 0.190946 (Simulation time: 7 hr 15 min 28 sec) 
Heartbeat CPU 0 instructions: 1990000000 cycles: 7978176826 heartbeat IPC: 0.184602 cumulative IPC: 0.190902 (Simulation time: 7 hr 17 min 58 sec) 
*** Reached end of trace: traces/605.mcf_s-782B.champsimtrace.xz
Heartbeat CPU 0 instructions: 2000000000 cycles: 8032298499 heartbeat IPC: 0.184769 cumulative IPC: 0.19086 (Simulation time: 7 hr 20 min 27 sec) 
Finished CPU 0 instructions: 1500000003 cycles: 7859182545 cumulative IPC: 0.19086 (Simulation time: 7 hr 20 min 27 sec) 

ChampSim completed all CPUs

Region of Interest Statistics

CPU 0 cumulative IPC: 0.19086 instructions: 1500000003 cycles: 7859182545
cpu0_DTLB TOTAL     ACCESS:  304642109  HIT:  165925818  MISS:  138716291
cpu0_DTLB LOAD      ACCESS:  295078884  HIT:  156845648  MISS:  138233236
cpu0_DTLB RFO       ACCESS:    9563225  HIT:    9080170  MISS:     483055
cpu0_DTLB PREFETCH  ACCESS:          0  HIT:          0  MISS:          0
cpu0_DTLB WRITEBACK ACCESS:          0  HIT:          0  MISS:          0
cpu0_DTLB TRANSLATION ACCESS:          0  HIT:          0  MISS:          0
cpu0_DTLB PREFETCH  REQUESTED:          0  ISSUED:          0  USEFUL:          0  USELESS:          0
cpu0_DTLB AVERAGE MISS LATENCY: 9.20411 cycles
cpu0_ITLB TOTAL     ACCESS:  128515820  HIT:  128515820  MISS:          0
cpu0_ITLB LOAD      ACCESS:  128515820  HIT:  128515820  MISS:          0
cpu0_ITLB RFO       ACCESS:          0  HIT:          0  MISS:          0
cpu0_ITLB PREFETCH  ACCESS:          0  HIT:          0  MISS:          0
cpu0_ITLB WRITEBACK ACCESS:          0  HIT:          0  MISS:          0
cpu0_ITLB TRANSLATION ACCESS:          0  HIT:          0  MISS:          0
cpu0_ITLB PREFETCH  REQUESTED:          0  ISSUED:          0  USEFUL:          0  USELESS:          0
cpu0_ITLB AVERAGE MISS LATENCY: -nan cycles
cpu0_L1I TOTAL     ACCESS:    2019723  HIT:    2019723  MISS:          0
cpu0_L1I LOAD      ACCESS:    2019723  HIT:    2019723  MISS:          0
cpu0_L1I RFO       ACCESS:          0  HIT:          0  MISS:          0
cpu0_L1I PREFETCH  ACCESS:          0  HIT:          0  MISS:          0
cpu0_L1I WRITEBACK ACCESS:          0  HIT:          0  MISS:          0
cpu0_L1I TRANSLATION ACCESS:          0  HIT:          0  MISS:          0
cpu0_L1I PREFETCH  REQUESTED:          0  ISSUED:          0  USEFUL:          0  USELESS:          0
cpu0_L1I AVERAGE MISS LATENCY: -nan cycles
cpu0_STLB TOTAL     ACCESS:  138716291  HIT:  136932975  MISS:    1783316
cpu0_STLB LOAD      ACCESS:  138233236  HIT:  136469348  MISS:    1763888
cpu0_STLB RFO       ACCESS:     483055  HIT:     463627  MISS:      19428
cpu0_STLB PREFETCH  ACCESS:          0  HIT:          0  MISS:          0
cpu0_STLB WRITEBACK ACCESS:          0  HIT:          0  MISS:          0
cpu0_STLB TRANSLATION ACCESS:          0  HIT:          0  MISS:          0
cpu0_STLB PREFETCH  REQUESTED:          0  ISSUED:          0  USEFUL:          0  USELESS:          0
cpu0_STLB AVERAGE MISS LATENCY: 15.0585 cycles
cpu0_L1D TOTAL     ACCESS:  312944560  HIT:   68897324  MISS:  244047236
cpu0_L1D LOAD      ACCESS:  294741066  HIT:   51113382  MISS:  243627684
cpu0_L1D RFO       ACCESS:   16430694  HIT:   16135989  MISS:     294705
cpu0_L1D PREFETCH  ACCESS:          0  HIT:          0  MISS:          0
cpu0_L1D WRITEBACK ACCESS:          0  HIT:          0  MISS:          0
cpu0_L1D TRANSLATION ACCESS:    1772800  HIT:    1647953  MISS:     124847
cpu0_L1D PREFETCH  REQUESTED:          0  ISSUED:          0  USEFUL:          0  USELESS:          0
cpu0_L1D AVERAGE MISS LATENCY: 134.781 cycles
cpu0_L2C TOTAL     ACCESS:  246406452  HIT:   32816260  MISS:  213590192
cpu0_L2C LOAD      ACCESS:  243627358  HIT:   30353558  MISS:  213273800
cpu0_L2C RFO       ACCESS:     294704  HIT:      28502  MISS:     266202
cpu0_L2C PREFETCH  ACCESS:          0  HIT:          0  MISS:          0
cpu0_L2C WRITEBACK ACCESS:    2359543  HIT:    2359539  MISS:          4
cpu0_L2C TRANSLATION ACCESS:     124847  HIT:      74661  MISS:      50186
cpu0_L2C PREFETCH  REQUESTED:          0  ISSUED:          0  USEFUL:          0  USELESS:          0
cpu0_L2C AVERAGE MISS LATENCY: 141.384 cycles
LLC TOTAL     ACCESS:  215737310  HIT:   90365813  MISS:  125371497
LLC LOAD      ACCESS:  213273735  HIT:   87979639  MISS:  125294096
LLC RFO       ACCESS:     266200  HIT:     207371  MISS:      58829
LLC PREFETCH  ACCESS:          0  HIT:          0  MISS:          0
LLC WRITEBACK ACCESS:    2147189  HIT:    2143231  MISS:       3958
LLC TRANSLATION ACCESS:      50186  HIT:      35572  MISS:      14614
LLC PREFETCH  REQUESTED:          0  ISSUED:          0  USEFUL:          0  USELESS:          0
LLC AVERAGE MISS LATENCY: 205.04 cycles
~~~~~~~~~~Reuse Distance Profiler output~~~~~~~~~~
0	12592208	7409120
1	9419248	6281824
2	6996480	4706576
3	6414368	4460528
4	4713248	3225216
5	4675824	3408624
6	4259696	3075904
7	3541088	2728320
8	3707472	3037184
9	3916048	3349792
10	3641296	2957248
11	2536560	2057456
12	2049520	1562496
13	1621632	1193936
14	1420240	1066064
15	1266624	929616
16	1014352	727968
17	857296	616256
18	721712	546320
19	689888	484368
20	668480	464688
21	637696	458656
22	610496	453744
23	521744	370288
24	486608	362512
25	481344	359696
26	479280	364256
27	452416	356640
28	377152	288912
29	361152	285776
30	295616	239184
31	244128	193792
32	230512	189952
33	187120	152032
34	179856	149424
35	169056	133808
36	172560	129760
37	160480	130016
38	156032	122400
39	146000	115808
40	140512	111408
41	127888	106416
42	129600	105744
43	131024	107216
44	116768	96864
45	111264	91856
46	125504	101488
47	121456	104800
48	108064	95184
49	101344	90000
50	101376	87776
51	104912	83280
52	92432	76832
53	92480	79760
54	92320	79328
55	92016	77008
56	87584	73168
57	79872	66640
58	75376	63680
59	77920	65632
60	75872	62448
61	76992	60592
62	70128	56576
63	71984	58976
64	159040	129088
66	153712	125296
68	166960	137056
70	167040	137296
72	172352	135712
74	160800	123536
76	151232	116448
78	145904	109472
80	143008	106976
82	148464	106944
84	156896	109728
86	162864	114800
88	161920	112272
90	151888	104192
92	151152	103952
94	149088	103904
96	153968	108080
98	146992	99104
100	147696	102784
102	147056	106736
104	153232	120592
106	141600	113472
108	141136	113120
110	134992	108752
112	128240	103712
114	125648	103760
116	121264	100592
118	117504	96576
120	113808	94144
122	107328	89664
124	107440	92000
126	108528	92880
128	208416	178192
132	206784	179968
136	202000	177712
140	196624	179856
144	195104	182752
148	204944	195216
152	195952	186928
156	192256	185424
160	198544	191456
164	193936	186960
168	191904	185328
172	190896	183728
176	180576	173808
180	181456	174016
184	183200	174608
188	180848	172736
192	183648	175744
196	181552	173472
200	183792	176096
204	186160	178784
208	183216	175760
212	184880	175456
216	196464	182832
220	186336	177920
224	172688	164464
228	169008	161600
232	176000	168256
236	172608	165104
240	175984	168464
244	175664	168672
248	187360	181120
252	180816	173888
256	343184	330480
264	340992	330320
272	339232	327488
280	333376	322912
288	325344	315072
296	329408	318336
304	329152	320400
312	314048	304768
320	307408	297952
328	290208	280688
336	291632	281984
344	273888	264912
352	268480	258416
360	257072	246592
368	254208	245760
376	248464	240576
384	234608	228048
392	219952	214640
400	213488	208944
408	202784	198128
416	190224	185248
424	181456	177104
432	173968	170032
440	167872	164448
448	151888	149408
456	147808	145248
464	137408	135472
472	129040	126192
480	127472	124832
488	127408	124320
496	120048	117248
504	116784	113712
512	238624	232720
528	220960	216480
544	219168	215328
560	231312	227584
576	204192	200560
592	209984	207552
608	212672	209904
624	223440	218720
640	225248	216928
656	225632	218736
672	225728	221904
688	222384	219376
704	220464	218320
720	229296	227104
736	221344	216000
752	207728	202384
768	201520	199328
784	207424	205856
800	213488	212064
816	193568	191824
832	174720	173088
848	164688	162864
864	164480	162480
880	171264	169744
896	171872	170816
912	158720	157808
928	143872	142480
944	138096	136384
960	140496	138880
976	134912	133264
992	145216	143424
1008	142048	140656
1024	263488	260384
1056	249200	245056
1088	297424	294512
1120	291024	288400
1152	251088	249168
1184	262304	260032
1216	259152	257184
1248	246528	243680
1280	243344	240416
1312	227824	226320
1344	211920	210240
1376	202624	201376
1408	203856	203344
1440	195360	194864
1472	235104	234544
1504	213408	212832
1536	208768	207920
1568	177648	176384
1600	172544	171888
1632	193504	193008
1664	179744	179200
1696	172960	172400
1728	177632	177168
1760	158864	158176
1792	179328	178480
1824	149472	148528
1856	146736	145616
1888	163024	162240
1920	173088	172560
1952	151344	150720
1984	155040	154400
2016	142496	141904
2048	279344	278320
2112	254384	253216
2176	316192	315024
2240	291552	290528
2304	281440	280528
2368	231760	230432
2432	241312	239472
2496	218144	216464
2560	246016	244576
2624	280336	278768
2688	259600	258352
2752	304096	302144
2816	323024	321520
2880	257120	255424
2944	272288	270688
3008	253152	251760
3072	254608	253264
3136	273920	272704
3200	272224	270592
3264	273312	270992
3328	287648	285136
3392	275328	273776
3456	275104	274240
3520	267776	266832
3584	302016	301344
3648	285040	284208
3712	268944	268368
3776	244128	243584
3840	258000	257568
3904	255520	255088
3968	262432	262000
4032	291104	290800
4096	442528	441856
4224	376176	375520
4352	371296	370736
4480	405248	404560
4608	383760	383152
4736	415376	414672
4864	339200	338400
4992	307552	306672
5120	297904	297136
5248	351248	350208
5376	343168	342224
5504	327312	326528
5632	309216	308576
5760	331744	330944
5888	334480	333232
6016	314576	313392
6144	350128	349152
6272	346848	346224
6400	306816	305792
6528	297200	296624
6656	332816	332464
6784	322960	322560
6912	295440	295072
7040	276384	276016
7168	295968	295600
7296	288848	288528
7424	271760	271200
7552	270416	270112
7680	276080	275856
7808	269648	269392
7936	251040	250640
8064	258688	258176
8192	521776	521152
8448	622096	621104
8704	582608	581728
8960	574992	573952
9216	582160	580528
9472	552544	550672
9728	630816	628496
9984	528656	524416
10240	558288	554016
10496	560240	555536
10752	587120	583408
11008	656832	653808
11264	679472	675184
11520	700288	698112
11776	822592	820208
12032	929712	927376
12288	1123360	1120416
12544	30915040	30897648
12800	761328	758240
13056	848800	845904
13312	1042800	1039776
13568	509168	504064
13824	509200	492384
14080	3314144	3292256
14336	682880	666784
14592	485200	473888
14848	695792	684784
15104	694496	685136
15360	506160	494592
15616	494672	477392
15872	917600	901440
16128	2079184	2068608
16384	3961056	3945440
16896	2197488	2183792
17408	1396480	1379840
17920	3573152	3561008
18432	3699200	3692400
18944	3899456	3892128
19456	5150992	5142080
19968	5939264	5931008
20480	6080240	6072144
20992	3940048	3934992
21504	3193696	3189216
22016	2791936	2788912
22528	1801888	1799840
23040	1021488	1020448
23552	772944	772080
24064	733424	732496
24576	788080	787296
25088	1096592	1095168
25600	672080	671824
26112	460816	459152
26624	397872	393680
27136	351408	348912
27648	354816	353040
28160	403424	401824
28672	387584	386480
29184	411472	410848
29696	318368	316048
30208	313248	311024
30720	367488	365424
31232	397600	395376
31744	405584	403520
32256	466720	464672
32768	865936	862752
33792	733712	731184
34816	726832	723920
35840	828864	826064
36864	974992	973136
37888	1151664	1149632
38912	821856	817984
39936	825808	823072
40960	800720	798976
41984	725584	724064
43008	680128	678368
44032	665136	663664
45056	605968	604544
46080	544144	543120
47104	448288	447056
48128	482592	481744
49152	551536	550448
50176	775296	774400
51200	543808	542368
52224	456896	455296
53248	481696	480192
54272	493248	492416
55296	462128	460768
56320	516992	515904
57344	535328	534208
58368	553200	551952
59392	458368	457520
60416	465472	464608
61440	477296	476544
62464	622640	621856
63488	520384	519536
64512	420784	419488
65536	781392	779952
67584	712032	710752
69632	770064	768992
71680	691792	690624
73728	767584	766704
75776	827872	826592
77824	714112	712784
79872	689792	688672
81920	687168	686304
83968	645776	645040
86016	643424	642592
88064	677856	676944
90112	546736	545808
92160	531424	530576
94208	559568	559008
96256	528912	528400
98304	564032	563456
100352	613920	613232
102400	484928	484176
104448	481760	481232
106496	480848	480432
108544	462144	461792
110592	429584	429232
112640	506480	506016
114688	430608	430128
116736	405360	404912
118784	399968	399504
120832	419600	419264
122880	379680	379248
124928	447088	446528
126976	376464	375888
129024	367536	367200
131072	702688	701904
135168	690672	689872
139264	660912	660208
143360	603984	603472
147456	600176	599728
151552	609056	608400
155648	538624	538048
159744	515600	515280
163840	535312	534656
167936	484864	484416
172032	464144	463616
176128	490880	490544
180224	415536	415184
184320	425904	425568
188416	427520	427328
192512	392144	391840
196608	381968	381488
200704	399728	399440
204800	344720	344384
208896	334944	334720
212992	356144	355824
217088	316752	316448
221184	302816	302656
225280	312608	312256
229376	280160	279712
233472	278464	278128
237568	292304	292128
241664	257504	257344
245760	251392	251152
249856	263472	263216
253952	243424	243200
258048	235600	235488
262144	444848	444528
270336	426384	425984
278528	400160	399792
286720	383744	383520
294912	361184	360864
303104	334304	333952
311296	326176	325872
319488	299888	299600
327680	291440	291248
335872	289072	288752
344064	261888	261680
352256	261088	260832
360448	246848	246624
368640	229824	229632
376832	225600	225344
385024	212784	212576
393216	200592	200416
401408	195712	195456
409600	185040	184944
417792	173664	173568
425984	173072	172928
434176	160960	160816
442368	163872	163744
450560	153296	153168
458752	145648	145456
466944	144080	144032
475136	137792	137696
483328	133120	133088
491520	127040	126992
499712	125584	125552
507904	121408	121200
516096	116704	116560
524288	229136	229008
540672	216480	216384
557056	201088	200784
573440	188688	188432
589824	178256	178144
606208	170816	170608
622592	157344	157216
638976	151616	151488
655360	144992	144880
671744	136816	136656
688128	136512	136368
704512	132032	131904
720896	124272	124160
737280	122656	122544
753664	110864	110768
770048	110448	110352
786432	102560	102480
802816	99280	99200
819200	100160	100032
835584	89792	89712
851968	87008	86864
868352	87184	87088
884736	81344	81280
901120	84032	83952
917504	77328	77232
933888	74736	74688
950272	71840	71824
966656	69008	68960
983040	66384	66320
999424	65680	65680
1015808	62944	62944
1032192	63536	63488
1048576	121232	121088
1081344	111616	111488
1114112	104112	104048
1146880	106688	106576
1179648	94832	94720
1212416	85648	85552
1245184	81936	81840
1277952	77344	77168
1310720	73152	73088
1343488	69904	69856
1376256	66400	66320
1409024	63536	63456
1441792	60256	60208
1474560	57968	57936
1507328	58624	58608
1540096	57504	57440
1572864	51488	51440
1605632	46784	46688
1638400	48992	48928
1671168	45088	45008
1703936	55824	55808
1736704	40256	40208
1769472	45648	45536
1802240	39424	39376
1835008	42912	42864
1867776	35760	35712
1900544	32720	32672
1933312	31136	31120
1966080	37760	37744
1998848	29104	29056
2031616	29952	29840
2064384	26688	26640
2097152	58672	58544
2162688	48096	47984
2228224	44416	44272
2293760	41744	41632
2359296	43408	43344
2424832	36784	36736
2490368	35712	35696
2555904	38320	38224
2621440	31072	31024
2686976	33376	33280
2752512	27664	27616
2818048	26448	26352
2883584	30912	30896
2949120	23088	23024
3014656	23856	23824
3080192	23824	23760
3145728	21040	20992
3211264	19520	19472
3276800	28496	28432
3342336	18240	18192
3407872	17168	17120
3473408	15888	15808
3538944	16160	16128
3604480	15552	15488
3670016	13728	13680
3735552	15792	15712
3801088	14800	14736
3866624	12560	12496
3932160	12800	12736
3997696	13392	13376
4063232	12736	12656
4128768	10800	10752
4194304	21616	21584
4325376	19200	19168
4456448	23824	23776
4587520	17648	17520
4718592	17152	17136
4849664	14528	14448
4980736	15376	15248
5111808	17584	17472
5242880	12096	12048
5373952	13088	13088
5505024	12112	12000
5636096	21488	21408
5767168	10384	10336
5898240	13184	13104
6029312	10928	10880
6160384	13488	13424
6291456	8880	8832
6422528	8352	8224
6553600	10000	9888
6684672	8800	8784
6815744	7216	7120
6946816	7296	7216
7077888	6400	6304
7208960	9856	9760
7340032	8320	8256
7471104	13248	13168
7602176	5776	5728
7733248	5024	4976
7864320	10800	10720
7995392	10992	10976
8126464	10128	10112
8257536	8192	8128
8388608	13280	13136
8650752	8720	8608
8912896	8368	8288
9175040	17968	17888
9437184	7232	7024
9699328	6368	6256
9961472	11728	11616
10223616	11904	11792
10485760	7664	7552
10747904	5584	5520
11010048	5568	5472
11272192	5344	5232
11534336	10752	10560
11796480	3488	3488
12058624	4064	4016
12320768	4800	4736
12582912	3776	3680
12845056	3216	3136
13107200	4672	4512
13369344	3008	2928
13631488	3664	3504
13893632	2880	2784
14155776	2592	2512
14417920	2160	2096
14680064	5184	5072
14942208	2304	2144
15204352	10096	10000
15466496	5728	5584
15728640	4256	4176
15990784	3712	3632
16252928	1744	1712
16515072	3552	3440
16777216	7760	7632
17301504	2752	2624
17825792	2768	2608
18350080	9696	9616
18874368	3040	2896
19398656	6512	6224
19922944	6736	6640
20447232	2096	2016
20971520	8528	8448
21495808	2272	2096
22020096	1568	1408
22544384	2192	1952
23068672	1648	1456
23592960	13904	13792
24117248	992	848
24641536	1504	1360
25165824	1328	1152
25690112	1168	1040
26214400	1280	1104
26738688	816	720
27262976	800	656
27787264	2224	2128
28311552	1536	1392
28835840	2096	2048
29360128	1328	1120
29884416	1344	1200
30408704	1776	1648
30932992	720	624
31457280	1184	1072
31981568	1008	928
32505856	1248	1104
33030144	736	624
33554432	1072	944
34603008	3552	3312
35651584	1472	1312
36700160	1152	848
37748736	960	608
38797312	1840	1680
39845888	624	448
40894464	688	528
41943040	1104	976
42991616	1040	896
44040192	3056	2800
45088768	560	448
46137344	672	512
47185920	592	496
48234496	1104	992
49283072	1376	1184
50331648	480	384
51380224	528	480
52428800	512	352
53477376	480	288
54525952	576	464
55574528	352	272
56623104	864	784
57671680	304	240
58720256	416	368
59768832	448	416
60817408	656	608
61865984	3088	2992
62914560	2576	2496
63963136	432	320
65011712	752	672
66060288	784	688
67108864	704	496
69206016	1360	1264
71303168	1168	960
73400320	1120	848
75497472	1456	1200
77594624	880	704
79691776	912	720
81788928	2832	2656
83886080	672	512
85983232	816	736
88080384	2400496	2400288
90177536	2290080	2290000
92274688	4845712	4845616
94371840	4285664	4285488
96468992	10328672	10328448
98566144	16284144	16284096
100663296	4495984	4495936
102760448	3053968	3053920
104857600	13208736	13208720
106954752	2923744	2923712
109051904	1897808	1897728
111149056	1299280	1299280
113246208	2797264	2797200
115343360	8942992	8942992
117440512	2192064	2192048
119537664	3014208	3014208
121634816	1949488	1949488
123731968	1705488	1705488
125829120	32	32
127926272	16	16
130023424	48	48
132120576	112	112
134217728	16	16
138412032	320	288
142606336	176	176
146800640	224	160
150994944	64	64
155189248	624	624
159383552	32	32
163577856	32	32
167772160	48	48
171966464	64	64
176160768	160	160
180355072	48	48
184549376	16	16
188743680	0	0
192937984	16	16
197132288	0	0
201326592	48	48
205520896	32	32
209715200	48	32
213909504	32	16
218103808	0	0
222298112	32	32
226492416	16	16
230686720	16	16
234881024	160	144
239075328	16	16
243269632	64	64
247463936	1184	1168
251658240	32	32
255852544	0	0
260046848	16	16
264241152	0	0
268435456	0	0
276824064	0	0
285212672	0	0
293601280	32	32
301989888	32	32
310378496	0	0
318767104	16	16
327155712	0	0
335544320	0	0
343932928	0	0
352321536	16	16
360710144	0	0
369098752	0	0
377487360	0	0
385875968	0	0
394264576	0	0
402653184	0	0
411041792	16	16
419430400	0	0
427819008	0	0
436207616	0	0
444596224	0	0
452984832	0	0
461373440	0	0
469762048	0	0
478150656	0	0
486539264	0	0
494927872	0	0
503316480	0	0
511705088	0	0
520093696	0	0
528482304	0	0
536870912	0	0
553648128	0	0
570425344	0	0
587202560	0	0
603979776	0	0
620756992	0	0
637534208	0	0
654311424	0	0
671088640	0	0
687865856	0	0
704643072	0	0
721420288	0	0
738197504	0	0
754974720	0	0
771751936	0	0
788529152	0	0
805306368	0	0
822083584	0	0
838860800	0	0
855638016	0	0
872415232	0	0
889192448	0	0
905969664	0	0
922746880	0	0
939524096	0	0
956301312	0	0
973078528	0	0
989855744	0	0
1006632960	0	0
1023410176	0	0
1040187392	0	0
1056964608	0	0
1073741824	0	0
1107296256	0	0
1140850688	0	0
1174405120	0	0
1207959552	0	0
1241513984	0	0
1275068416	0	0
1308622848	0	0
1342177280	0	0
1375731712	0	0
1409286144	0	0
1442840576	0	0
1476395008	0	0
1509949440	0	0
1543503872	0	0
1577058304	0	0
1610612736	0	0
1644167168	0	0
1677721600	0	0
1711276032	0	0
1744830464	0	0
1778384896	0	0
1811939328	0	0
1845493760	0	0
1879048192	0	0
1912602624	0	0
1946157056	0	0
1979711488	0	0
2013265920	0	0
2046820352	0	0
2080374784	0	0
2113929216	0	0
2147483648	0	0
2214592512	0	0
2281701376	0	0
2348810240	0	0
2415919104	0	0
2483027968	0	0
2550136832	0	0
2617245696	0	0
2684354560	0	0
2751463424	0	0
2818572288	0	0
2885681152	0	0
2952790016	0	0
3019898880	0	0
3087007744	0	0
3154116608	0	0
3221225472	0	0
3288334336	0	0
3355443200	0	0
3422552064	0	0
3489660928	0	0
3556769792	0	0
3623878656	0	0
3690987520	0	0
3758096384	0	0
3825205248	0	0
3892314112	0	0
3959422976	0	0
4026531840	0	0
4093640704	0	0
4160749568	0	0
4227858432	0	0
~~~~~~~~~~Reuse Distance Profiler output end~~~~~~~~~~

DRAM Statistics
 CHANNEL 0
 RQ ROW_BUFFER_HIT:   53921852  ROW_BUFFER_MISS:   71441447
 DBUS AVG_CONGESTED_CYCLE:    3.81018
 WQ ROW_BUFFER_HIT:     360128  ROW_BUFFER_MISS:     465146  FULL:          0


CPU 0 Branch Prediction Accuracy: 96.3915% MPKI: 11.2031 Average ROB Occupancy at Mispredict: 55.353
Branch type MPKI
BRANCH_DIRECT_JUMP: 0
BRANCH_INDIRECT: 0
BRANCH_CONDITIONAL: 11.203
BRANCH_DIRECT_CALL: 0
BRANCH_INDIRECT_CALL: 6.13333e-05
BRANCH_RETURN: 6.66667e-07

