
*** ChampSim Multicore Out-of-Order Simulator ***

Warmup Instructions: 500000000
Simulation Instructions: 1500000000
Number of CPUs: 1
Off-chip DRAM Size: 4 GiB Channels: 1 Width: 64-bit Data Rate: 3200 MT/s

VirtualMemory physical capacity: 8588881920 num_ppages: 2096895
VirtualMemory page size: 4096 log2_page_size: 12

CPU 0 runs traces/605.mcf_s-1554B.champsimtrace.xz
CPU 0 Bimodal branch predictor
Basic BTB sets: 1024 ways: 8 indirect buffer size: 4096 RAS size: 64
Initializing LRU.
Initializing LRU.
Initializing LRU.
Initializing LRU.
Initializing rdLRU.
Initializing LRU.
Initializing LRU.
Heartbeat CPU 0 instructions: 10000002 cycles: 3968111 heartbeat IPC: 2.52009 cumulative IPC: 2.52009 (Simulation time: 0 hr 1 min 16 sec) 
Heartbeat CPU 0 instructions: 20000001 cycles: 7994012 heartbeat IPC: 2.48392 cumulative IPC: 2.50187 (Simulation time: 0 hr 2 min 29 sec) 
Heartbeat CPU 0 instructions: 30000002 cycles: 12065370 heartbeat IPC: 2.45618 cumulative IPC: 2.48646 (Simulation time: 0 hr 3 min 39 sec) 
Heartbeat CPU 0 instructions: 40000001 cycles: 16093380 heartbeat IPC: 2.48262 cumulative IPC: 2.48549 (Simulation time: 0 hr 4 min 47 sec) 
Heartbeat CPU 0 instructions: 50000001 cycles: 20122183 heartbeat IPC: 2.48213 cumulative IPC: 2.48482 (Simulation time: 0 hr 5 min 56 sec) 
Heartbeat CPU 0 instructions: 60000001 cycles: 24177469 heartbeat IPC: 2.46592 cumulative IPC: 2.48165 (Simulation time: 0 hr 7 min 5 sec) 
Heartbeat CPU 0 instructions: 70000001 cycles: 28176548 heartbeat IPC: 2.50058 cumulative IPC: 2.48434 (Simulation time: 0 hr 8 min 21 sec) 
Heartbeat CPU 0 instructions: 80000004 cycles: 32176259 heartbeat IPC: 2.50018 cumulative IPC: 2.48631 (Simulation time: 0 hr 9 min 37 sec) 
Heartbeat CPU 0 instructions: 90000000 cycles: 36208308 heartbeat IPC: 2.48013 cumulative IPC: 2.48562 (Simulation time: 0 hr 10 min 41 sec) 
Heartbeat CPU 0 instructions: 100000000 cycles: 40234130 heartbeat IPC: 2.48396 cumulative IPC: 2.48545 (Simulation time: 0 hr 11 min 45 sec) 
Heartbeat CPU 0 instructions: 110000001 cycles: 44280023 heartbeat IPC: 2.47164 cumulative IPC: 2.48419 (Simulation time: 0 hr 12 min 51 sec) 
Heartbeat CPU 0 instructions: 120000000 cycles: 48414433 heartbeat IPC: 2.41872 cumulative IPC: 2.4786 (Simulation time: 0 hr 14 min 44 sec) 
Heartbeat CPU 0 instructions: 130000004 cycles: 52465266 heartbeat IPC: 2.46863 cumulative IPC: 2.47783 (Simulation time: 0 hr 16 min 31 sec) 
Heartbeat CPU 0 instructions: 140000003 cycles: 56557753 heartbeat IPC: 2.4435 cumulative IPC: 2.47535 (Simulation time: 0 hr 18 min 29 sec) 
Heartbeat CPU 0 instructions: 150000001 cycles: 60655516 heartbeat IPC: 2.44036 cumulative IPC: 2.47298 (Simulation time: 0 hr 19 min 49 sec) 
Heartbeat CPU 0 instructions: 160000002 cycles: 64825609 heartbeat IPC: 2.39803 cumulative IPC: 2.46816 (Simulation time: 0 hr 20 min 57 sec) 
Heartbeat CPU 0 instructions: 170000002 cycles: 69021126 heartbeat IPC: 2.3835 cumulative IPC: 2.46301 (Simulation time: 0 hr 22 min 7 sec) 
Heartbeat CPU 0 instructions: 180000000 cycles: 73203241 heartbeat IPC: 2.39113 cumulative IPC: 2.45891 (Simulation time: 0 hr 23 min 17 sec) 
Heartbeat CPU 0 instructions: 190000001 cycles: 77364595 heartbeat IPC: 2.40306 cumulative IPC: 2.4559 (Simulation time: 0 hr 24 min 33 sec) 
Heartbeat CPU 0 instructions: 200000003 cycles: 81584454 heartbeat IPC: 2.36975 cumulative IPC: 2.45145 (Simulation time: 0 hr 26 min 33 sec) 
Heartbeat CPU 0 instructions: 210000000 cycles: 85667745 heartbeat IPC: 2.449 cumulative IPC: 2.45133 (Simulation time: 0 hr 28 min 35 sec) 
Heartbeat CPU 0 instructions: 220000000 cycles: 89719151 heartbeat IPC: 2.46828 cumulative IPC: 2.4521 (Simulation time: 0 hr 30 min 37 sec) 
Heartbeat CPU 0 instructions: 230000000 cycles: 93907663 heartbeat IPC: 2.38748 cumulative IPC: 2.44921 (Simulation time: 0 hr 31 min 50 sec) 
Heartbeat CPU 0 instructions: 240000002 cycles: 97948889 heartbeat IPC: 2.4745 cumulative IPC: 2.45026 (Simulation time: 0 hr 32 min 56 sec) 
Heartbeat CPU 0 instructions: 250000000 cycles: 102030934 heartbeat IPC: 2.44975 cumulative IPC: 2.45024 (Simulation time: 0 hr 34 min 3 sec) 
Heartbeat CPU 0 instructions: 260000003 cycles: 106262769 heartbeat IPC: 2.36304 cumulative IPC: 2.44676 (Simulation time: 0 hr 35 min 55 sec) 
Heartbeat CPU 0 instructions: 270000002 cycles: 110212003 heartbeat IPC: 2.53214 cumulative IPC: 2.44982 (Simulation time: 0 hr 37 min 53 sec) 
Heartbeat CPU 0 instructions: 280000003 cycles: 114209924 heartbeat IPC: 2.5013 cumulative IPC: 2.45163 (Simulation time: 0 hr 39 min 8 sec) 
Heartbeat CPU 0 instructions: 290000001 cycles: 118273476 heartbeat IPC: 2.4609 cumulative IPC: 2.45194 (Simulation time: 0 hr 40 min 42 sec) 
Heartbeat CPU 0 instructions: 300000002 cycles: 122449750 heartbeat IPC: 2.39448 cumulative IPC: 2.44998 (Simulation time: 0 hr 42 min 3 sec) 
Heartbeat CPU 0 instructions: 310000004 cycles: 126464759 heartbeat IPC: 2.49065 cumulative IPC: 2.45128 (Simulation time: 0 hr 43 min 9 sec) 
Heartbeat CPU 0 instructions: 320000000 cycles: 130445332 heartbeat IPC: 2.5122 cumulative IPC: 2.45314 (Simulation time: 0 hr 44 min 13 sec) 
Heartbeat CPU 0 instructions: 330000000 cycles: 134358854 heartbeat IPC: 2.55524 cumulative IPC: 2.45611 (Simulation time: 0 hr 45 min 16 sec) 
Heartbeat CPU 0 instructions: 340000004 cycles: 138205786 heartbeat IPC: 2.59948 cumulative IPC: 2.4601 (Simulation time: 0 hr 46 min 19 sec) 
Heartbeat CPU 0 instructions: 350000004 cycles: 142060419 heartbeat IPC: 2.59428 cumulative IPC: 2.46374 (Simulation time: 0 hr 47 min 21 sec) 
Heartbeat CPU 0 instructions: 360000004 cycles: 145956458 heartbeat IPC: 2.56671 cumulative IPC: 2.46649 (Simulation time: 0 hr 48 min 24 sec) 
Heartbeat CPU 0 instructions: 370000002 cycles: 149957804 heartbeat IPC: 2.49916 cumulative IPC: 2.46736 (Simulation time: 0 hr 49 min 29 sec) 
Heartbeat CPU 0 instructions: 380000001 cycles: 154109570 heartbeat IPC: 2.40861 cumulative IPC: 2.46578 (Simulation time: 0 hr 50 min 37 sec) 
Heartbeat CPU 0 instructions: 390000002 cycles: 158307293 heartbeat IPC: 2.38224 cumulative IPC: 2.46356 (Simulation time: 0 hr 51 min 46 sec) 
Heartbeat CPU 0 instructions: 400000002 cycles: 162429183 heartbeat IPC: 2.42607 cumulative IPC: 2.46261 (Simulation time: 0 hr 52 min 57 sec) 
Heartbeat CPU 0 instructions: 410000003 cycles: 166616852 heartbeat IPC: 2.38796 cumulative IPC: 2.46074 (Simulation time: 0 hr 54 min 21 sec) 
Heartbeat CPU 0 instructions: 420000001 cycles: 170740172 heartbeat IPC: 2.42523 cumulative IPC: 2.45988 (Simulation time: 0 hr 55 min 35 sec) 
Heartbeat CPU 0 instructions: 430000002 cycles: 174833307 heartbeat IPC: 2.44312 cumulative IPC: 2.45949 (Simulation time: 0 hr 57 min 3 sec) 
Heartbeat CPU 0 instructions: 440000003 cycles: 179050330 heartbeat IPC: 2.37134 cumulative IPC: 2.45741 (Simulation time: 0 hr 58 min 43 sec) 
Heartbeat CPU 0 instructions: 450000000 cycles: 183264832 heartbeat IPC: 2.37276 cumulative IPC: 2.45546 (Simulation time: 1 hr 0 min 19 sec) 
Heartbeat CPU 0 instructions: 460000003 cycles: 187572870 heartbeat IPC: 2.32124 cumulative IPC: 2.45238 (Simulation time: 1 hr 1 min 34 sec) 
Heartbeat CPU 0 instructions: 470000004 cycles: 191784651 heartbeat IPC: 2.37429 cumulative IPC: 2.45067 (Simulation time: 1 hr 3 min 8 sec) 
Heartbeat CPU 0 instructions: 480000001 cycles: 196058279 heartbeat IPC: 2.33993 cumulative IPC: 2.44825 (Simulation time: 1 hr 4 min 26 sec) 
Heartbeat CPU 0 instructions: 490000003 cycles: 200234531 heartbeat IPC: 2.39449 cumulative IPC: 2.44713 (Simulation time: 1 hr 6 min 12 sec) 
Heartbeat CPU 0 instructions: 500000003 cycles: 204382106 heartbeat IPC: 2.41105 cumulative IPC: 2.4464 (Simulation time: 1 hr 8 min 17 sec) 

Warmup complete CPU 0 instructions: 500000003 cycles: 204382106 (Simulation time: 1 hr 8 min 17 sec) 

Heartbeat CPU 0 instructions: 510000000 cycles: 282141657 heartbeat IPC: 0.128602 cumulative IPC: 0.128602 (Simulation time: 1 hr 18 min 10 sec) 
Heartbeat CPU 0 instructions: 520000000 cycles: 359271961 heartbeat IPC: 0.129651 cumulative IPC: 0.129124 (Simulation time: 1 hr 28 min 23 sec) 
Heartbeat CPU 0 instructions: 530000002 cycles: 437960724 heartbeat IPC: 0.127083 cumulative IPC: 0.128436 (Simulation time: 1 hr 38 min 0 sec) 
Heartbeat CPU 0 instructions: 540000003 cycles: 515825721 heartbeat IPC: 0.128427 cumulative IPC: 0.128434 (Simulation time: 1 hr 45 min 34 sec) 
Heartbeat CPU 0 instructions: 550000003 cycles: 593752520 heartbeat IPC: 0.128326 cumulative IPC: 0.128412 (Simulation time: 1 hr 55 min 47 sec) 
Heartbeat CPU 0 instructions: 560000000 cycles: 672544020 heartbeat IPC: 0.126917 cumulative IPC: 0.128161 (Simulation time: 2 hr 5 min 36 sec) 
Heartbeat CPU 0 instructions: 570000000 cycles: 751464705 heartbeat IPC: 0.126709 cumulative IPC: 0.127951 (Simulation time: 2 hr 14 min 21 sec) 
Heartbeat CPU 0 instructions: 580000000 cycles: 831147575 heartbeat IPC: 0.125497 cumulative IPC: 0.127639 (Simulation time: 2 hr 21 min 34 sec) 
Heartbeat CPU 0 instructions: 590000001 cycles: 911295725 heartbeat IPC: 0.124769 cumulative IPC: 0.127314 (Simulation time: 2 hr 27 min 57 sec) 
Heartbeat CPU 0 instructions: 600000000 cycles: 990787519 heartbeat IPC: 0.125799 cumulative IPC: 0.127161 (Simulation time: 2 hr 36 min 18 sec) 
Heartbeat CPU 0 instructions: 610000001 cycles: 1070524344 heartbeat IPC: 0.125413 cumulative IPC: 0.127 (Simulation time: 2 hr 45 min 7 sec) 
Heartbeat CPU 0 instructions: 620000002 cycles: 1151536822 heartbeat IPC: 0.123438 cumulative IPC: 0.126695 (Simulation time: 2 hr 51 min 21 sec) 
Heartbeat CPU 0 instructions: 630000002 cycles: 1232009224 heartbeat IPC: 0.124266 cumulative IPC: 0.126505 (Simulation time: 2 hr 58 min 32 sec) 
Heartbeat CPU 0 instructions: 640000000 cycles: 1312708379 heartbeat IPC: 0.123917 cumulative IPC: 0.126317 (Simulation time: 3 hr 5 min 1 sec) 
Heartbeat CPU 0 instructions: 650000001 cycles: 1392826042 heartbeat IPC: 0.124816 cumulative IPC: 0.126215 (Simulation time: 3 hr 11 min 16 sec) 
Heartbeat CPU 0 instructions: 660000002 cycles: 1473462108 heartbeat IPC: 0.124014 cumulative IPC: 0.126076 (Simulation time: 3 hr 17 min 23 sec) 
Heartbeat CPU 0 instructions: 670000000 cycles: 1553301209 heartbeat IPC: 0.125252 cumulative IPC: 0.126027 (Simulation time: 3 hr 23 min 26 sec) 
Heartbeat CPU 0 instructions: 680000001 cycles: 1632786341 heartbeat IPC: 0.12581 cumulative IPC: 0.126015 (Simulation time: 3 hr 29 min 29 sec) 
Heartbeat CPU 0 instructions: 690000001 cycles: 1713125711 heartbeat IPC: 0.124472 cumulative IPC: 0.125933 (Simulation time: 3 hr 35 min 29 sec) 
Heartbeat CPU 0 instructions: 700000002 cycles: 1794800272 heartbeat IPC: 0.122437 cumulative IPC: 0.125753 (Simulation time: 3 hr 41 min 9 sec) 
Heartbeat CPU 0 instructions: 710000001 cycles: 1874976090 heartbeat IPC: 0.124726 cumulative IPC: 0.125704 (Simulation time: 3 hr 47 min 11 sec) 
Heartbeat CPU 0 instructions: 720000001 cycles: 1955929691 heartbeat IPC: 0.123528 cumulative IPC: 0.125603 (Simulation time: 3 hr 52 min 56 sec) 
Heartbeat CPU 0 instructions: 730000000 cycles: 2036166223 heartbeat IPC: 0.124631 cumulative IPC: 0.125561 (Simulation time: 3 hr 58 min 50 sec) 
Heartbeat CPU 0 instructions: 740000000 cycles: 2116962034 heartbeat IPC: 0.123769 cumulative IPC: 0.125485 (Simulation time: 4 hr 4 min 27 sec) 
Heartbeat CPU 0 instructions: 750000001 cycles: 2198444591 heartbeat IPC: 0.122726 cumulative IPC: 0.125372 (Simulation time: 4 hr 10 min 19 sec) 
Heartbeat CPU 0 instructions: 760000003 cycles: 2279649146 heartbeat IPC: 0.123146 cumulative IPC: 0.125285 (Simulation time: 4 hr 16 min 7 sec) 
Heartbeat CPU 0 instructions: 770000003 cycles: 2359972708 heartbeat IPC: 0.124496 cumulative IPC: 0.125256 (Simulation time: 4 hr 22 min 1 sec) 
Heartbeat CPU 0 instructions: 780000002 cycles: 2441843562 heartbeat IPC: 0.122144 cumulative IPC: 0.125142 (Simulation time: 4 hr 27 min 48 sec) 
Heartbeat CPU 0 instructions: 790000000 cycles: 2523671491 heartbeat IPC: 0.122208 cumulative IPC: 0.125038 (Simulation time: 4 hr 33 min 26 sec) 
Heartbeat CPU 0 instructions: 800000002 cycles: 2607233365 heartbeat IPC: 0.119672 cumulative IPC: 0.124852 (Simulation time: 4 hr 38 min 26 sec) 
Heartbeat CPU 0 instructions: 810000000 cycles: 2688270595 heartbeat IPC: 0.1234 cumulative IPC: 0.124804 (Simulation time: 4 hr 44 min 5 sec) 
Heartbeat CPU 0 instructions: 820000000 cycles: 2770062639 heartbeat IPC: 0.122261 cumulative IPC: 0.124723 (Simulation time: 4 hr 49 min 39 sec) 
Heartbeat CPU 0 instructions: 830000001 cycles: 2851395516 heartbeat IPC: 0.122952 cumulative IPC: 0.124669 (Simulation time: 4 hr 55 min 32 sec) 
Heartbeat CPU 0 instructions: 840000000 cycles: 2932990317 heartbeat IPC: 0.122557 cumulative IPC: 0.124606 (Simulation time: 5 hr 0 min 58 sec) 
Heartbeat CPU 0 instructions: 850000002 cycles: 3013925893 heartbeat IPC: 0.123555 cumulative IPC: 0.124575 (Simulation time: 5 hr 7 min 4 sec) 
Heartbeat CPU 0 instructions: 860000000 cycles: 3095836117 heartbeat IPC: 0.122085 cumulative IPC: 0.124505 (Simulation time: 5 hr 12 min 48 sec) 
Heartbeat CPU 0 instructions: 870000003 cycles: 3176649068 heartbeat IPC: 0.123743 cumulative IPC: 0.124484 (Simulation time: 5 hr 18 min 39 sec) 
Heartbeat CPU 0 instructions: 880000000 cycles: 3259129554 heartbeat IPC: 0.121241 cumulative IPC: 0.124397 (Simulation time: 5 hr 24 min 8 sec) 
Heartbeat CPU 0 instructions: 890000003 cycles: 3339345451 heartbeat IPC: 0.124664 cumulative IPC: 0.124403 (Simulation time: 5 hr 30 min 10 sec) 
Heartbeat CPU 0 instructions: 900000003 cycles: 3421215076 heartbeat IPC: 0.122145 cumulative IPC: 0.124346 (Simulation time: 5 hr 35 min 33 sec) 
Heartbeat CPU 0 instructions: 910000000 cycles: 3503825035 heartbeat IPC: 0.121051 cumulative IPC: 0.124263 (Simulation time: 5 hr 41 min 15 sec) 
Heartbeat CPU 0 instructions: 920000000 cycles: 3586029675 heartbeat IPC: 0.121648 cumulative IPC: 0.1242 (Simulation time: 5 hr 46 min 50 sec) 
Heartbeat CPU 0 instructions: 930000004 cycles: 3668647958 heartbeat IPC: 0.121039 cumulative IPC: 0.124124 (Simulation time: 5 hr 52 min 8 sec) 
Heartbeat CPU 0 instructions: 940000001 cycles: 3750119009 heartbeat IPC: 0.122743 cumulative IPC: 0.124093 (Simulation time: 5 hr 58 min 0 sec) 
Heartbeat CPU 0 instructions: 950000000 cycles: 3831421313 heartbeat IPC: 0.122998 cumulative IPC: 0.124068 (Simulation time: 6 hr 4 min 6 sec) 
Heartbeat CPU 0 instructions: 960000001 cycles: 3913350001 heartbeat IPC: 0.122057 cumulative IPC: 0.124024 (Simulation time: 6 hr 9 min 51 sec) 
Heartbeat CPU 0 instructions: 970000002 cycles: 3995130520 heartbeat IPC: 0.122279 cumulative IPC: 0.123986 (Simulation time: 6 hr 15 min 51 sec) 
Heartbeat CPU 0 instructions: 980000001 cycles: 4076713117 heartbeat IPC: 0.122575 cumulative IPC: 0.123956 (Simulation time: 6 hr 22 min 3 sec) 
Heartbeat CPU 0 instructions: 990000001 cycles: 4158762743 heartbeat IPC: 0.121877 cumulative IPC: 0.123913 (Simulation time: 6 hr 28 min 13 sec) 
Heartbeat CPU 0 instructions: 1000000003 cycles: 4241476969 heartbeat IPC: 0.120898 cumulative IPC: 0.123851 (Simulation time: 6 hr 34 min 10 sec) 
Heartbeat CPU 0 instructions: 1010000000 cycles: 4323173481 heartbeat IPC: 0.122404 cumulative IPC: 0.123823 (Simulation time: 6 hr 40 min 20 sec) 
Heartbeat CPU 0 instructions: 1020000002 cycles: 4404782739 heartbeat IPC: 0.122535 cumulative IPC: 0.123798 (Simulation time: 6 hr 46 min 33 sec) 
Heartbeat CPU 0 instructions: 1030000003 cycles: 4486917436 heartbeat IPC: 0.121751 cumulative IPC: 0.123758 (Simulation time: 6 hr 52 min 35 sec) 
Heartbeat CPU 0 instructions: 1040000000 cycles: 4568089594 heartbeat IPC: 0.123195 cumulative IPC: 0.123748 (Simulation time: 6 hr 58 min 48 sec) 
Heartbeat CPU 0 instructions: 1050000002 cycles: 4649816254 heartbeat IPC: 0.122359 cumulative IPC: 0.123722 (Simulation time: 7 hr 4 min 59 sec) 
Heartbeat CPU 0 instructions: 1060000004 cycles: 4731131206 heartbeat IPC: 0.122979 cumulative IPC: 0.123709 (Simulation time: 7 hr 11 min 12 sec) 
Heartbeat CPU 0 instructions: 1070000001 cycles: 4813041698 heartbeat IPC: 0.122084 cumulative IPC: 0.12368 (Simulation time: 7 hr 17 min 24 sec) 
Heartbeat CPU 0 instructions: 1080000004 cycles: 4894751745 heartbeat IPC: 0.122384 cumulative IPC: 0.123658 (Simulation time: 7 hr 23 min 36 sec) 
Heartbeat CPU 0 instructions: 1090000001 cycles: 4976146209 heartbeat IPC: 0.122858 cumulative IPC: 0.123644 (Simulation time: 7 hr 29 min 48 sec) 
Heartbeat CPU 0 instructions: 1100000001 cycles: 5057726722 heartbeat IPC: 0.122578 cumulative IPC: 0.123626 (Simulation time: 7 hr 35 min 58 sec) 
Heartbeat CPU 0 instructions: 1110000002 cycles: 5139306590 heartbeat IPC: 0.122579 cumulative IPC: 0.123609 (Simulation time: 7 hr 42 min 9 sec) 
Heartbeat CPU 0 instructions: 1120000000 cycles: 5220772888 heartbeat IPC: 0.12275 cumulative IPC: 0.123595 (Simulation time: 7 hr 48 min 20 sec) 
Heartbeat CPU 0 instructions: 1130000001 cycles: 5302993897 heartbeat IPC: 0.121623 cumulative IPC: 0.123563 (Simulation time: 7 hr 54 min 24 sec) 
Heartbeat CPU 0 instructions: 1140000003 cycles: 5385009879 heartbeat IPC: 0.121927 cumulative IPC: 0.123537 (Simulation time: 8 hr 0 min 36 sec) 
Heartbeat CPU 0 instructions: 1150000003 cycles: 5467114787 heartbeat IPC: 0.121795 cumulative IPC: 0.12351 (Simulation time: 8 hr 6 min 48 sec) 
Heartbeat CPU 0 instructions: 1160000003 cycles: 5549226377 heartbeat IPC: 0.121785 cumulative IPC: 0.123483 (Simulation time: 8 hr 13 min 0 sec) 
Heartbeat CPU 0 instructions: 1170000004 cycles: 5631449864 heartbeat IPC: 0.12162 cumulative IPC: 0.123455 (Simulation time: 8 hr 19 min 12 sec) 
Heartbeat CPU 0 instructions: 1180000002 cycles: 5713530694 heartbeat IPC: 0.121831 cumulative IPC: 0.123431 (Simulation time: 8 hr 25 min 25 sec) 
Heartbeat CPU 0 instructions: 1190000000 cycles: 5795816269 heartbeat IPC: 0.121528 cumulative IPC: 0.123403 (Simulation time: 8 hr 31 min 36 sec) 
Heartbeat CPU 0 instructions: 1200000001 cycles: 5878077230 heartbeat IPC: 0.121564 cumulative IPC: 0.123376 (Simulation time: 8 hr 37 min 48 sec) 
Heartbeat CPU 0 instructions: 1210000000 cycles: 5960168658 heartbeat IPC: 0.121815 cumulative IPC: 0.123354 (Simulation time: 8 hr 44 min 1 sec) 
Heartbeat CPU 0 instructions: 1220000002 cycles: 6042257777 heartbeat IPC: 0.121819 cumulative IPC: 0.123333 (Simulation time: 8 hr 50 min 13 sec) 
Heartbeat CPU 0 instructions: 1230000001 cycles: 6124667274 heartbeat IPC: 0.121345 cumulative IPC: 0.123305 (Simulation time: 8 hr 56 min 26 sec) 
Heartbeat CPU 0 instructions: 1240000000 cycles: 6206941168 heartbeat IPC: 0.121545 cumulative IPC: 0.123281 (Simulation time: 9 hr 2 min 39 sec) 
Heartbeat CPU 0 instructions: 1250000000 cycles: 6289245372 heartbeat IPC: 0.1215 cumulative IPC: 0.123257 (Simulation time: 9 hr 8 min 52 sec) 
Heartbeat CPU 0 instructions: 1260000002 cycles: 6371781743 heartbeat IPC: 0.121159 cumulative IPC: 0.123229 (Simulation time: 9 hr 15 min 5 sec) 
Heartbeat CPU 0 instructions: 1270000001 cycles: 6453913785 heartbeat IPC: 0.121755 cumulative IPC: 0.123209 (Simulation time: 9 hr 21 min 19 sec) 
Heartbeat CPU 0 instructions: 1280000000 cycles: 6536040366 heartbeat IPC: 0.121763 cumulative IPC: 0.12319 (Simulation time: 9 hr 27 min 32 sec) 
Heartbeat CPU 0 instructions: 1290000004 cycles: 6618337273 heartbeat IPC: 0.121511 cumulative IPC: 0.123169 (Simulation time: 9 hr 33 min 46 sec) 
Heartbeat CPU 0 instructions: 1300000002 cycles: 6700395403 heartbeat IPC: 0.121865 cumulative IPC: 0.123152 (Simulation time: 9 hr 39 min 59 sec) 
Heartbeat CPU 0 instructions: 1310000000 cycles: 6782760360 heartbeat IPC: 0.121411 cumulative IPC: 0.123131 (Simulation time: 9 hr 46 min 13 sec) 
Heartbeat CPU 0 instructions: 1320000000 cycles: 6865075128 heartbeat IPC: 0.121485 cumulative IPC: 0.12311 (Simulation time: 9 hr 52 min 27 sec) 
Heartbeat CPU 0 instructions: 1330000004 cycles: 6947521661 heartbeat IPC: 0.121291 cumulative IPC: 0.123088 (Simulation time: 9 hr 58 min 40 sec) 
Heartbeat CPU 0 instructions: 1340000002 cycles: 7029731230 heartbeat IPC: 0.12164 cumulative IPC: 0.123071 (Simulation time: 10 hr 4 min 54 sec) 
Heartbeat CPU 0 instructions: 1350000001 cycles: 7112183566 heartbeat IPC: 0.121282 cumulative IPC: 0.123049 (Simulation time: 10 hr 11 min 8 sec) 
Heartbeat CPU 0 instructions: 1360000001 cycles: 7194423738 heartbeat IPC: 0.121595 cumulative IPC: 0.123032 (Simulation time: 10 hr 17 min 23 sec) 
Heartbeat CPU 0 instructions: 1370000001 cycles: 7277212779 heartbeat IPC: 0.120789 cumulative IPC: 0.123006 (Simulation time: 10 hr 23 min 39 sec) 
Heartbeat CPU 0 instructions: 1380000004 cycles: 7359720794 heartbeat IPC: 0.1212 cumulative IPC: 0.122985 (Simulation time: 10 hr 29 min 54 sec) 
Heartbeat CPU 0 instructions: 1390000000 cycles: 7442323705 heartbeat IPC: 0.121061 cumulative IPC: 0.122963 (Simulation time: 10 hr 36 min 10 sec) 
Heartbeat CPU 0 instructions: 1400000000 cycles: 7525276398 heartbeat IPC: 0.120551 cumulative IPC: 0.122936 (Simulation time: 10 hr 42 min 26 sec) 
Heartbeat CPU 0 instructions: 1410000003 cycles: 7608209775 heartbeat IPC: 0.120579 cumulative IPC: 0.122909 (Simulation time: 10 hr 48 min 42 sec) 
Heartbeat CPU 0 instructions: 1420000002 cycles: 7691377877 heartbeat IPC: 0.120238 cumulative IPC: 0.12288 (Simulation time: 10 hr 54 min 58 sec) 
Heartbeat CPU 0 instructions: 1430000003 cycles: 7774443166 heartbeat IPC: 0.120387 cumulative IPC: 0.122852 (Simulation time: 11 hr 1 min 14 sec) 
Heartbeat CPU 0 instructions: 1440000004 cycles: 7857494212 heartbeat IPC: 0.120408 cumulative IPC: 0.122826 (Simulation time: 11 hr 7 min 30 sec) 
Heartbeat CPU 0 instructions: 1450000001 cycles: 7940777953 heartbeat IPC: 0.120071 cumulative IPC: 0.122796 (Simulation time: 11 hr 13 min 46 sec) 
Heartbeat CPU 0 instructions: 1460000000 cycles: 8024058199 heartbeat IPC: 0.120076 cumulative IPC: 0.122767 (Simulation time: 11 hr 20 min 3 sec) 
Heartbeat CPU 0 instructions: 1470000004 cycles: 8106891585 heartbeat IPC: 0.120724 cumulative IPC: 0.122746 (Simulation time: 11 hr 26 min 19 sec) 
Heartbeat CPU 0 instructions: 1480000000 cycles: 8189888390 heartbeat IPC: 0.120487 cumulative IPC: 0.122722 (Simulation time: 11 hr 32 min 36 sec) 
Heartbeat CPU 0 instructions: 1490000000 cycles: 8273092429 heartbeat IPC: 0.120186 cumulative IPC: 0.122696 (Simulation time: 11 hr 38 min 53 sec) 
Heartbeat CPU 0 instructions: 1500000000 cycles: 8355999042 heartbeat IPC: 0.120618 cumulative IPC: 0.122675 (Simulation time: 11 hr 45 min 9 sec) 
Heartbeat CPU 0 instructions: 1510000000 cycles: 8439121954 heartbeat IPC: 0.120304 cumulative IPC: 0.122651 (Simulation time: 11 hr 51 min 26 sec) 
Heartbeat CPU 0 instructions: 1520000000 cycles: 8521921924 heartbeat IPC: 0.120773 cumulative IPC: 0.122632 (Simulation time: 11 hr 57 min 43 sec) 
Heartbeat CPU 0 instructions: 1530000000 cycles: 8605151066 heartbeat IPC: 0.12015 cumulative IPC: 0.122608 (Simulation time: 12 hr 4 min 1 sec) 
Heartbeat CPU 0 instructions: 1540000003 cycles: 8688076158 heartbeat IPC: 0.120591 cumulative IPC: 0.122588 (Simulation time: 12 hr 10 min 18 sec) 
Heartbeat CPU 0 instructions: 1550000004 cycles: 8771025508 heartbeat IPC: 0.120556 cumulative IPC: 0.122568 (Simulation time: 12 hr 16 min 35 sec) 
Heartbeat CPU 0 instructions: 1560000000 cycles: 8854187000 heartbeat IPC: 0.120248 cumulative IPC: 0.122546 (Simulation time: 12 hr 22 min 52 sec) 
Heartbeat CPU 0 instructions: 1570000000 cycles: 8937028665 heartbeat IPC: 0.120712 cumulative IPC: 0.122529 (Simulation time: 12 hr 32 min 23 sec) 
Heartbeat CPU 0 instructions: 1580000003 cycles: 9019863220 heartbeat IPC: 0.120723 cumulative IPC: 0.122512 (Simulation time: 12 hr 44 min 1 sec) 
Heartbeat CPU 0 instructions: 1590000002 cycles: 9102835692 heartbeat IPC: 0.120522 cumulative IPC: 0.122493 (Simulation time: 12 hr 54 min 58 sec) 
Heartbeat CPU 0 instructions: 1600000002 cycles: 9185936483 heartbeat IPC: 0.120336 cumulative IPC: 0.122473 (Simulation time: 13 hr 5 min 57 sec) 
Heartbeat CPU 0 instructions: 1610000000 cycles: 9268867241 heartbeat IPC: 0.120582 cumulative IPC: 0.122456 (Simulation time: 13 hr 16 min 17 sec) 
Heartbeat CPU 0 instructions: 1620000003 cycles: 9351894734 heartbeat IPC: 0.120442 cumulative IPC: 0.122438 (Simulation time: 13 hr 26 min 14 sec) 
Heartbeat CPU 0 instructions: 1630000001 cycles: 9435027290 heartbeat IPC: 0.12029 cumulative IPC: 0.122418 (Simulation time: 13 hr 37 min 40 sec) 
Heartbeat CPU 0 instructions: 1640000004 cycles: 9518233940 heartbeat IPC: 0.120183 cumulative IPC: 0.122398 (Simulation time: 13 hr 48 min 24 sec) 
Heartbeat CPU 0 instructions: 1650000003 cycles: 9601125502 heartbeat IPC: 0.12064 cumulative IPC: 0.122383 (Simulation time: 13 hr 59 min 4 sec) 
Heartbeat CPU 0 instructions: 1660000001 cycles: 9684306251 heartbeat IPC: 0.12022 cumulative IPC: 0.122364 (Simulation time: 14 hr 9 min 47 sec) 
Heartbeat CPU 0 instructions: 1670000000 cycles: 9767391534 heartbeat IPC: 0.120358 cumulative IPC: 0.122346 (Simulation time: 14 hr 20 min 27 sec) 
Heartbeat CPU 0 instructions: 1680000001 cycles: 9850156078 heartbeat IPC: 0.120825 cumulative IPC: 0.122333 (Simulation time: 14 hr 30 min 42 sec) 
Heartbeat CPU 0 instructions: 1690000004 cycles: 9933167578 heartbeat IPC: 0.120465 cumulative IPC: 0.122317 (Simulation time: 14 hr 40 min 50 sec) 
Heartbeat CPU 0 instructions: 1700000003 cycles: 10016121956 heartbeat IPC: 0.120548 cumulative IPC: 0.122302 (Simulation time: 14 hr 50 min 59 sec) 
Heartbeat CPU 0 instructions: 1710000000 cycles: 10099348329 heartbeat IPC: 0.120154 cumulative IPC: 0.122284 (Simulation time: 14 hr 59 min 9 sec) 
Heartbeat CPU 0 instructions: 1720000000 cycles: 10182673951 heartbeat IPC: 0.120011 cumulative IPC: 0.122265 (Simulation time: 15 hr 6 min 40 sec) 
Heartbeat CPU 0 instructions: 1730000002 cycles: 10266178084 heartbeat IPC: 0.119755 cumulative IPC: 0.122245 (Simulation time: 15 hr 13 min 32 sec) 
Heartbeat CPU 0 instructions: 1740000003 cycles: 10349812892 heartbeat IPC: 0.119567 cumulative IPC: 0.122223 (Simulation time: 15 hr 20 min 8 sec) 
Heartbeat CPU 0 instructions: 1750000003 cycles: 10433746735 heartbeat IPC: 0.119141 cumulative IPC: 0.122197 (Simulation time: 15 hr 26 min 33 sec) 
Heartbeat CPU 0 instructions: 1760000004 cycles: 10517628160 heartbeat IPC: 0.119216 cumulative IPC: 0.122173 (Simulation time: 15 hr 32 min 54 sec) 
Heartbeat CPU 0 instructions: 1770000002 cycles: 10601563978 heartbeat IPC: 0.119139 cumulative IPC: 0.122148 (Simulation time: 15 hr 39 min 17 sec) 
Heartbeat CPU 0 instructions: 1780000001 cycles: 10685405027 heartbeat IPC: 0.119273 cumulative IPC: 0.122125 (Simulation time: 15 hr 45 min 39 sec) 
Heartbeat CPU 0 instructions: 1790000002 cycles: 10769252438 heartbeat IPC: 0.119264 cumulative IPC: 0.122103 (Simulation time: 15 hr 52 min 1 sec) 
Heartbeat CPU 0 instructions: 1800000000 cycles: 10853089998 heartbeat IPC: 0.119278 cumulative IPC: 0.122081 (Simulation time: 15 hr 58 min 22 sec) 
Heartbeat CPU 0 instructions: 1810000001 cycles: 10937078556 heartbeat IPC: 0.119064 cumulative IPC: 0.122057 (Simulation time: 16 hr 4 min 45 sec) 
Heartbeat CPU 0 instructions: 1820000001 cycles: 11021037200 heartbeat IPC: 0.119106 cumulative IPC: 0.122034 (Simulation time: 16 hr 11 min 8 sec) 
Heartbeat CPU 0 instructions: 1830000004 cycles: 11104659058 heartbeat IPC: 0.119586 cumulative IPC: 0.122015 (Simulation time: 16 hr 17 min 30 sec) 
Heartbeat CPU 0 instructions: 1840000002 cycles: 11188568428 heartbeat IPC: 0.119176 cumulative IPC: 0.121994 (Simulation time: 16 hr 23 min 52 sec) 
Heartbeat CPU 0 instructions: 1850000001 cycles: 11272398639 heartbeat IPC: 0.119289 cumulative IPC: 0.121973 (Simulation time: 16 hr 30 min 14 sec) 
Heartbeat CPU 0 instructions: 1860000003 cycles: 11356000472 heartbeat IPC: 0.119615 cumulative IPC: 0.121955 (Simulation time: 16 hr 36 min 37 sec) 
Heartbeat CPU 0 instructions: 1870000003 cycles: 11439775544 heartbeat IPC: 0.119367 cumulative IPC: 0.121936 (Simulation time: 16 hr 42 min 58 sec) 
Heartbeat CPU 0 instructions: 1880000000 cycles: 11523529620 heartbeat IPC: 0.119397 cumulative IPC: 0.121917 (Simulation time: 16 hr 49 min 21 sec) 
Heartbeat CPU 0 instructions: 1890000001 cycles: 11607249299 heartbeat IPC: 0.119446 cumulative IPC: 0.121899 (Simulation time: 16 hr 55 min 43 sec) 
Heartbeat CPU 0 instructions: 1900000002 cycles: 11690782195 heartbeat IPC: 0.119713 cumulative IPC: 0.121883 (Simulation time: 17 hr 2 min 5 sec) 
Heartbeat CPU 0 instructions: 1910000004 cycles: 11774472683 heartbeat IPC: 0.119488 cumulative IPC: 0.121866 (Simulation time: 17 hr 8 min 27 sec) 
Heartbeat CPU 0 instructions: 1920000002 cycles: 11857942410 heartbeat IPC: 0.119804 cumulative IPC: 0.121851 (Simulation time: 17 hr 14 min 51 sec) 
Heartbeat CPU 0 instructions: 1930000000 cycles: 11941485105 heartbeat IPC: 0.119699 cumulative IPC: 0.121836 (Simulation time: 17 hr 21 min 13 sec) 
Heartbeat CPU 0 instructions: 1940000004 cycles: 12025356953 heartbeat IPC: 0.11923 cumulative IPC: 0.121817 (Simulation time: 17 hr 27 min 35 sec) 
Heartbeat CPU 0 instructions: 1950000002 cycles: 12108848676 heartbeat IPC: 0.119772 cumulative IPC: 0.121803 (Simulation time: 17 hr 33 min 58 sec) 
Heartbeat CPU 0 instructions: 1960000001 cycles: 12192248000 heartbeat IPC: 0.119905 cumulative IPC: 0.12179 (Simulation time: 17 hr 40 min 21 sec) 
Heartbeat CPU 0 instructions: 1970000003 cycles: 12275634940 heartbeat IPC: 0.119923 cumulative IPC: 0.121777 (Simulation time: 17 hr 46 min 43 sec) 
Heartbeat CPU 0 instructions: 1980000001 cycles: 12359018423 heartbeat IPC: 0.119928 cumulative IPC: 0.121764 (Simulation time: 17 hr 53 min 5 sec) 
Heartbeat CPU 0 instructions: 1990000001 cycles: 12442274784 heartbeat IPC: 0.120111 cumulative IPC: 0.121753 (Simulation time: 17 hr 59 min 27 sec) 
*** Reached end of trace: traces/605.mcf_s-1554B.champsimtrace.xz
Heartbeat CPU 0 instructions: 2000000001 cycles: 12525418691 heartbeat IPC: 0.120273 cumulative IPC: 0.121743 (Simulation time: 18 hr 5 min 49 sec) 
Finished CPU 0 instructions: 1500000003 cycles: 12321036586 cumulative IPC: 0.121743 (Simulation time: 18 hr 5 min 49 sec) 

ChampSim completed all CPUs

Region of Interest Statistics

CPU 0 cumulative IPC: 0.121743 instructions: 1500000003 cycles: 12321036586
cpu0_DTLB TOTAL     ACCESS:  544153204  HIT:  537886472  MISS:    6266732
cpu0_DTLB LOAD      ACCESS:  472746521  HIT:  466491943  MISS:    6254578
cpu0_DTLB RFO       ACCESS:   71406683  HIT:   71394529  MISS:      12154
cpu0_DTLB PREFETCH  ACCESS:          0  HIT:          0  MISS:          0
cpu0_DTLB WRITEBACK ACCESS:          0  HIT:          0  MISS:          0
cpu0_DTLB TRANSLATION ACCESS:          0  HIT:          0  MISS:          0
cpu0_DTLB PREFETCH  REQUESTED:          0  ISSUED:          0  USEFUL:          0  USELESS:          0
cpu0_DTLB AVERAGE MISS LATENCY: 10.1643 cycles
cpu0_ITLB TOTAL     ACCESS:  146204782  HIT:  146204782  MISS:          0
cpu0_ITLB LOAD      ACCESS:  146204782  HIT:  146204782  MISS:          0
cpu0_ITLB RFO       ACCESS:          0  HIT:          0  MISS:          0
cpu0_ITLB PREFETCH  ACCESS:          0  HIT:          0  MISS:          0
cpu0_ITLB WRITEBACK ACCESS:          0  HIT:          0  MISS:          0
cpu0_ITLB TRANSLATION ACCESS:          0  HIT:          0  MISS:          0
cpu0_ITLB PREFETCH  REQUESTED:          0  ISSUED:          0  USEFUL:          0  USELESS:          0
cpu0_ITLB AVERAGE MISS LATENCY: -nan cycles
cpu0_L1I TOTAL     ACCESS:  253571854  HIT:  253571854  MISS:          0
cpu0_L1I LOAD      ACCESS:  253571854  HIT:  253571854  MISS:          0
cpu0_L1I RFO       ACCESS:          0  HIT:          0  MISS:          0
cpu0_L1I PREFETCH  ACCESS:          0  HIT:          0  MISS:          0
cpu0_L1I WRITEBACK ACCESS:          0  HIT:          0  MISS:          0
cpu0_L1I TRANSLATION ACCESS:          0  HIT:          0  MISS:          0
cpu0_L1I PREFETCH  REQUESTED:          0  ISSUED:          0  USEFUL:          0  USELESS:          0
cpu0_L1I AVERAGE MISS LATENCY: -nan cycles
cpu0_STLB TOTAL     ACCESS:    6266732  HIT:    6100643  MISS:     166089
cpu0_STLB LOAD      ACCESS:    6254578  HIT:    6098474  MISS:     156104
cpu0_STLB RFO       ACCESS:      12154  HIT:       2169  MISS:       9985
cpu0_STLB PREFETCH  ACCESS:          0  HIT:          0  MISS:          0
cpu0_STLB WRITEBACK ACCESS:          0  HIT:          0  MISS:          0
cpu0_STLB TRANSLATION ACCESS:          0  HIT:          0  MISS:          0
cpu0_STLB PREFETCH  REQUESTED:          0  ISSUED:          0  USEFUL:          0  USELESS:          0
cpu0_STLB AVERAGE MISS LATENCY: 43.9311 cycles
cpu0_L1D TOTAL     ACCESS:  588199615  HIT:  344047113  MISS:  244152502
cpu0_L1D LOAD      ACCESS:  527532282  HIT:  284075896  MISS:  243456386
cpu0_L1D RFO       ACCESS:   60501353  HIT:   59844326  MISS:     657027
cpu0_L1D PREFETCH  ACCESS:          0  HIT:          0  MISS:          0
cpu0_L1D WRITEBACK ACCESS:          0  HIT:          0  MISS:          0
cpu0_L1D TRANSLATION ACCESS:     165980  HIT:     126891  MISS:      39089
cpu0_L1D PREFETCH  REQUESTED:          0  ISSUED:          0  USEFUL:          0  USELESS:          0
cpu0_L1D AVERAGE MISS LATENCY: 231.454 cycles
cpu0_L2C TOTAL     ACCESS:  245179439  HIT:    1056852  MISS:  244122587
cpu0_L2C LOAD      ACCESS:  243456386  HIT:      11222  MISS:  243445164
cpu0_L2C RFO       ACCESS:     657027  HIT:        498  MISS:     656529
cpu0_L2C PREFETCH  ACCESS:          0  HIT:          0  MISS:          0
cpu0_L2C WRITEBACK ACCESS:    1026937  HIT:    1021044  MISS:       5893
cpu0_L2C TRANSLATION ACCESS:      39089  HIT:      24088  MISS:      15001
cpu0_L2C PREFETCH  REQUESTED:          0  ISSUED:          0  USEFUL:          0  USELESS:          0
cpu0_L2C AVERAGE MISS LATENCY: 220.331 cycles
LLC TOTAL     ACCESS:  245139859  HIT:    8958525  MISS:  236181334
LLC LOAD      ACCESS:  243445164  HIT:    7926249  MISS:  235518915
LLC RFO       ACCESS:     656529  HIT:       5138  MISS:     651391
LLC PREFETCH  ACCESS:          0  HIT:          0  MISS:          0
LLC WRITEBACK ACCESS:    1023165  HIT:    1017942  MISS:       5223
LLC TRANSLATION ACCESS:      15001  HIT:       9196  MISS:       5805
LLC PREFETCH  REQUESTED:          0  ISSUED:          0  USEFUL:          0  USELESS:          0
LLC AVERAGE MISS LATENCY: 206.033 cycles
~~~~~~~~~~Reuse Distance Profiler output~~~~~~~~~~
0	56920832	41869584
1	62822528	44441824
2	55108144	44333056
3	37194848	27428352
4	31246784	22560960
5	37324720	30401792
6	34072256	27435280
7	31632368	27559040
8	31395328	28456240
9	27374304	25936976
10	22028704	21395696
11	13272448	12792912
12	13586480	13194944
13	5226416	4829168
14	5194576	4833296
15	4148704	3867664
16	2594736	2315200
17	1397312	1142304
18	1170560	940192
19	903952	702624
20	851840	670576
21	701616	533248
22	593984	448992
23	429712	306864
24	430240	319200
25	442880	339888
26	358640	257440
27	329232	235536
28	311104	225872
29	325216	240928
30	273280	187920
31	242128	160688
32	237520	153792
33	243216	160544
34	203952	130112
35	193552	113760
36	197664	132352
37	197200	133936
38	154832	102320
39	130704	84256
40	144496	95344
41	145312	95632
42	122416	73040
43	112064	71216
44	114752	76768
45	107072	69792
46	92112	55744
47	91664	52928
48	93776	57488
49	95424	60512
50	82880	48336
51	76224	43552
52	70320	41280
53	73936	45120
54	63056	33520
55	68192	37424
56	64784	38384
57	60320	35776
58	52736	28624
59	56848	32176
60	55056	31856
61	59488	35360
62	59760	33760
63	48160	26304
64	92624	55904
66	88112	51760
68	96240	58720
70	84576	49776
72	82864	49712
74	63360	32400
76	59264	29136
78	50208	24688
80	50672	24544
82	45232	20304
84	46640	23056
86	39216	18240
88	36912	17712
90	32784	15232
92	35664	17248
94	29648	12192
96	31296	13952
98	28816	12480
100	27984	12880
102	24736	11520
104	25248	12224
106	22288	8784
108	25264	10304
110	20832	7616
112	20176	7328
114	18512	7360
116	18624	8432
118	17920	6928
120	18272	7728
122	17136	6528
124	18576	8032
126	13680	5472
128	28160	14016
132	23472	11840
136	21584	11712
140	18048	10928
144	18704	12784
148	15776	9936
152	17360	12112
156	15520	10800
160	13552	9024
164	13248	9200
168	11008	7584
172	10576	6896
176	9456	6752
180	9808	7568
184	8784	6480
188	7632	5600
192	7040	5232
196	6992	5328
200	7104	5376
204	6544	4592
208	6432	4800
212	6864	5104
216	5840	4320
220	5824	4272
224	5264	3712
228	5408	3680
232	4816	3600
236	4144	2992
240	4896	3776
244	3552	2560
248	3456	2496
252	3808	2752
256	6576	4352
264	5520	4304
272	5200	4368
280	4176	3648
288	6128	5424
296	5056	4288
304	6144	5360
312	5376	4688
320	4752	4176
328	4176	3600
336	3712	3072
344	4736	4240
352	3776	3200
360	3968	3456
368	2736	2480
376	2080	1952
384	2416	2240
392	2272	2000
400	2000	1840
408	1776	1568
416	2224	1888
424	2624	2112
432	2000	1536
440	1568	1280
448	1264	1008
456	1088	912
464	976	784
472	960	832
480	960	880
488	1024	992
496	1264	1216
504	1296	1184
512	2944	2560
528	2224	2048
544	2128	1968
560	2320	1952
576	3408	2928
592	3072	2688
608	2912	2688
624	2464	2320
640	2720	2608
656	2672	2560
672	2128	2048
688	3264	2736
704	3040	2304
720	2368	2144
736	2032	1872
752	2288	2080
768	2448	1952
784	1856	1552
800	1504	1328
816	1328	1296
832	1776	1712
848	1904	1488
864	1152	1024
880	1024	928
896	912	880
912	912	896
928	1040	960
944	1056	1056
960	1008	912
976	1040	960
992	800	768
1008	784	752
1024	1344	1280
1056	1472	1456
1088	2192	1440
1120	1232	1136
1152	1424	1392
1184	1424	1408
1216	1424	1408
1248	1312	1312
1280	1392	1360
1312	1648	1568
1344	1680	1632
1376	1216	1120
1408	1248	1232
1440	1248	1200
1472	1104	1104
1504	1008	992
1536	1952	1520
1568	1488	1104
1600	752	720
1632	752	752
1664	448	448
1696	480	480
1728	224	224
1760	272	272
1792	336	336
1824	304	272
1856	224	224
1888	176	176
1920	224	224
1952	112	112
1984	160	160
2016	160	160
2048	256	256
2112	320	320
2176	272	272
2240	224	224
2304	368	368
2368	432	432
2432	320	320
2496	336	336
2560	640	640
2624	688	688
2688	640	640
2752	624	624
2816	560	560
2880	496	496
2944	400	400
3008	496	496
3072	656	656
3136	800	800
3200	624	624
3264	304	304
3328	288	288
3392	160	160
3456	128	128
3520	112	112
3584	96	96
3648	160	160
3712	160	160
3776	128	128
3840	96	96
3904	64	64
3968	112	112
4032	160	160
4096	128	128
4224	144	144
4352	80	80
4480	176	176
4608	128	128
4736	224	224
4864	144	144
4992	224	224
5120	240	240
5248	384	384
5376	480	480
5504	288	288
5632	304	304
5760	352	352
5888	272	272
6016	224	224
6144	304	304
6272	336	336
6400	272	272
6528	336	336
6656	208	208
6784	176	176
6912	128	128
7040	32	32
7168	64	64
7296	64	64
7424	32	32
7552	64	64
7680	64	64
7808	64	64
7936	48	48
8064	32	32
8192	16	16
8448	64	64
8704	80	80
8960	48	48
9216	48	48
9472	32	32
9728	16	16
9984	80	80
10240	32	32
10496	48	48
10752	208	208
11008	80	80
11264	128	128
11520	96	96
11776	112	112
12032	80	80
12288	48	48
12544	112	112
12800	80	80
13056	64	64
13312	80	80
13568	160	160
13824	48	48
14080	16	16
14336	32	32
14592	32	32
14848	64	64
15104	16	16
15360	0	0
15616	64	64
15872	32	32
16128	32	32
16384	16	16
16896	0	0
17408	16	16
17920	16	16
18432	0	0
18944	16	16
19456	32	32
19968	16	16
20480	32	32
20992	32	32
21504	64	64
22016	144	144
22528	48	48
23040	48	48
23552	32	32
24064	64	64
24576	64	64
25088	80	80
25600	64	64
26112	48	48
26624	32	32
27136	32	32
27648	0	0
28160	0	0
28672	0	0
29184	0	0
29696	0	0
30208	0	0
30720	0	0
31232	0	0
31744	0	0
32256	0	0
32768	16	16
33792	112	112
34816	80	32
35840	16	16
36864	16	16
37888	0	0
38912	656	560
39936	224	96
40960	32	32
41984	48	48
43008	48	48
44032	48	48
45056	48	48
46080	16	16
47104	16	16
48128	32	32
49152	0	0
50176	32	32
51200	48	48
52224	64	64
53248	0	0
54272	0	0
55296	0	0
56320	0	0
57344	0	0
58368	0	0
59392	0	0
60416	0	0
61440	0	0
62464	0	0
63488	16	16
64512	0	0
65536	16	16
67584	16	16
69632	16	16
71680	0	0
73728	16	16
75776	0	0
77824	0	0
79872	0	0
81920	0	0
83968	0	0
86016	0	0
88064	0	0
90112	0	0
92160	672	336
94208	0	0
96256	214144	214112
98304	4147200	4146720
100352	9521664	9520800
102400	13990272	13988928
104448	18485568	18483840
106496	18930352	18928304
108544	16207584	16206080
110592	18962848	18961168
112640	19999616	19997952
114688	16382416	16381104
116736	14687664	14686752
118784	15027200	15025888
120832	15505184	15503856
122880	14811968	14810864
124928	14063200	14062224
126976	14645488	14644384
129024	15253120	15251904
131072	26917584	26915712
135168	29322320	29320368
139264	11112928	11112112
143360	621024	620944
147456	941072	940928
151552	669248	669200
155648	602976	602928
159744	550400	550352
163840	357056	357056
167936	305936	305936
172032	296160	296128
176128	395056	395056
180224	477664	477648
184320	516816	516768
188416	660880	660768
192512	538624	538528
196608	252432	252256
200704	192912	192896
204800	223248	223216
208896	201216	201200
212992	166768	166768
217088	182832	182816
221184	169072	169072
225280	235856	235856
229376	388912	388864
233472	468288	468224
237568	590848	590736
241664	362208	362144
245760	385952	385888
249856	16	0
253952	0	0
258048	80	32
262144	32	32
270336	48	48
278528	32	32
286720	16	16
294912	96	32
303104	48	32
311296	0	0
319488	16	16
327680	0	0
335872	48	16
344064	32	0
352256	48	32
360448	16	0
368640	96	80
376832	16	16
385024	32	32
393216	0	0
401408	16	16
409600	32	16
417792	32	32
425984	64	48
434176	16	16
442368	32	0
450560	16	16
458752	32	32
466944	32	16
475136	48	48
483328	16	0
491520	16	16
499712	16	0
507904	0	0
516096	16	0
524288	32	0
540672	64	48
557056	16	0
573440	32	16
589824	16	16
606208	0	0
622592	32	16
638976	32	0
655360	0	0
671744	0	0
688128	64	48
704512	32	0
720896	32	16
737280	0	0
753664	0	0
770048	32	0
786432	48	48
802816	0	0
819200	48	32
835584	16	16
851968	0	0
868352	0	0
884736	32	32
901120	32	32
917504	32	32
933888	0	0
950272	48	32
966656	16	16
983040	0	0
999424	0	0
1015808	16	16
1032192	32	16
1048576	16	16
1081344	0	0
1114112	0	0
1146880	0	0
1179648	0	0
1212416	32	16
1245184	16	16
1277952	16	16
1310720	32	16
1343488	48	48
1376256	48	32
1409024	16	0
1441792	0	0
1474560	0	0
1507328	0	0
1540096	0	0
1572864	0	0
1605632	0	0
1638400	0	0
1671168	0	0
1703936	32	16
1736704	32	32
1769472	0	0
1802240	0	0
1835008	0	0
1867776	0	0
1900544	0	0
1933312	0	0
1966080	16	16
1998848	0	0
2031616	0	0
2064384	0	0
2097152	0	0
2162688	0	0
2228224	0	0
2293760	16	16
2359296	0	0
2424832	16	0
2490368	0	0
2555904	16	16
2621440	0	0
2686976	0	0
2752512	0	0
2818048	0	0
2883584	0	0
2949120	0	0
3014656	0	0
3080192	0	0
3145728	0	0
3211264	0	0
3276800	16	16
3342336	32	32
3407872	0	0
3473408	0	0
3538944	16	16
3604480	0	0
3670016	0	0
3735552	0	0
3801088	0	0
3866624	0	0
3932160	0	0
3997696	0	0
4063232	0	0
4128768	0	0
4194304	0	0
4325376	0	0
4456448	0	0
4587520	0	0
4718592	0	0
4849664	0	0
4980736	0	0
5111808	0	0
5242880	0	0
5373952	0	0
5505024	0	0
5636096	32	0
5767168	0	0
5898240	0	0
6029312	0	0
6160384	0	0
6291456	0	0
6422528	0	0
6553600	0	0
6684672	0	0
6815744	0	0
6946816	0	0
7077888	0	0
7208960	0	0
7340032	0	0
7471104	0	0
7602176	0	0
7733248	0	0
7864320	0	0
7995392	0	0
8126464	0	0
8257536	0	0
8388608	0	0
8650752	0	0
8912896	0	0
9175040	16	0
9437184	0	0
9699328	0	0
9961472	0	0
10223616	0	0
10485760	0	0
10747904	0	0
11010048	0	0
11272192	0	0
11534336	0	0
11796480	0	0
12058624	0	0
12320768	0	0
12582912	0	0
12845056	0	0
13107200	0	0
13369344	0	0
13631488	0	0
13893632	0	0
14155776	0	0
14417920	0	0
14680064	0	0
14942208	0	0
15204352	0	0
15466496	0	0
15728640	0	0
15990784	0	0
16252928	0	0
16515072	0	0
16777216	0	0
17301504	0	0
17825792	0	0
18350080	0	0
18874368	0	0
19398656	0	0
19922944	0	0
20447232	0	0
20971520	0	0
21495808	0	0
22020096	0	0
22544384	0	0
23068672	0	0
23592960	0	0
24117248	0	0
24641536	0	0
25165824	0	0
25690112	0	0
26214400	0	0
26738688	0	0
27262976	0	0
27787264	0	0
28311552	0	0
28835840	0	0
29360128	0	0
29884416	0	0
30408704	0	0
30932992	0	0
31457280	0	0
31981568	0	0
32505856	0	0
33030144	0	0
33554432	0	0
34603008	0	0
35651584	0	0
36700160	0	0
37748736	0	0
38797312	0	0
39845888	0	0
40894464	0	0
41943040	0	0
42991616	0	0
44040192	0	0
45088768	0	0
46137344	0	0
47185920	0	0
48234496	0	0
49283072	0	0
50331648	0	0
51380224	0	0
52428800	0	0
53477376	0	0
54525952	0	0
55574528	0	0
56623104	0	0
57671680	0	0
58720256	0	0
59768832	0	0
60817408	0	0
61865984	0	0
62914560	0	0
63963136	0	0
65011712	0	0
66060288	0	0
67108864	0	0
69206016	0	0
71303168	0	0
73400320	0	0
75497472	0	0
77594624	0	0
79691776	0	0
81788928	0	0
83886080	0	0
85983232	0	0
88080384	0	0
90177536	0	0
92274688	0	0
94371840	0	0
96468992	0	0
98566144	0	0
100663296	0	0
102760448	0	0
104857600	0	0
106954752	0	0
109051904	0	0
111149056	0	0
113246208	0	0
115343360	0	0
117440512	0	0
119537664	0	0
121634816	0	0
123731968	0	0
125829120	0	0
127926272	0	0
130023424	0	0
132120576	0	0
134217728	0	0
138412032	0	0
142606336	0	0
146800640	0	0
150994944	0	0
155189248	0	0
159383552	0	0
163577856	0	0
167772160	0	0
171966464	0	0
176160768	0	0
180355072	0	0
184549376	0	0
188743680	0	0
192937984	0	0
197132288	0	0
201326592	0	0
205520896	0	0
209715200	0	0
213909504	0	0
218103808	0	0
222298112	0	0
226492416	0	0
230686720	0	0
234881024	0	0
239075328	0	0
243269632	0	0
247463936	0	0
251658240	0	0
255852544	0	0
260046848	0	0
264241152	0	0
268435456	0	0
276824064	0	0
285212672	0	0
293601280	0	0
301989888	0	0
310378496	0	0
318767104	0	0
327155712	0	0
335544320	0	0
343932928	0	0
352321536	0	0
360710144	0	0
369098752	0	0
377487360	0	0
385875968	0	0
394264576	0	0
402653184	0	0
411041792	0	0
419430400	0	0
427819008	0	0
436207616	0	0
444596224	0	0
452984832	0	0
461373440	0	0
469762048	0	0
478150656	0	0
486539264	0	0
494927872	0	0
503316480	0	0
511705088	0	0
520093696	0	0
528482304	0	0
536870912	0	0
553648128	0	0
570425344	0	0
587202560	0	0
603979776	0	0
620756992	0	0
637534208	0	0
654311424	0	0
671088640	0	0
687865856	0	0
704643072	0	0
721420288	0	0
738197504	0	0
754974720	0	0
771751936	0	0
788529152	0	0
805306368	0	0
822083584	0	0
838860800	0	0
855638016	0	0
872415232	0	0
889192448	0	0
905969664	0	0
922746880	0	0
939524096	0	0
956301312	0	0
973078528	0	0
989855744	0	0
1006632960	0	0
1023410176	0	0
1040187392	0	0
1056964608	0	0
1073741824	0	0
1107296256	0	0
1140850688	0	0
1174405120	0	0
1207959552	0	0
1241513984	0	0
1275068416	0	0
1308622848	0	0
1342177280	0	0
1375731712	0	0
1409286144	0	0
1442840576	0	0
1476395008	0	0
1509949440	0	0
1543503872	0	0
1577058304	0	0
1610612736	0	0
1644167168	0	0
1677721600	0	0
1711276032	0	0
1744830464	0	0
1778384896	0	0
1811939328	0	0
1845493760	0	0
1879048192	0	0
1912602624	0	0
1946157056	0	0
1979711488	0	0
2013265920	0	0
2046820352	0	0
2080374784	0	0
2113929216	0	0
2147483648	0	0
2214592512	0	0
2281701376	0	0
2348810240	0	0
2415919104	0	0
2483027968	0	0
2550136832	0	0
2617245696	0	0
2684354560	0	0
2751463424	0	0
2818572288	0	0
2885681152	0	0
2952790016	0	0
3019898880	0	0
3087007744	0	0
3154116608	0	0
3221225472	0	0
3288334336	0	0
3355443200	0	0
3422552064	0	0
3489660928	0	0
3556769792	0	0
3623878656	0	0
3690987520	0	0
3758096384	0	0
3825205248	0	0
3892314112	0	0
3959422976	0	0
4026531840	0	0
4093640704	0	0
4160749568	0	0
4227858432	0	0
~~~~~~~~~~Reuse Distance Profiler output end~~~~~~~~~~

DRAM Statistics
 CHANNEL 0
 RQ ROW_BUFFER_HIT:   47322901  ROW_BUFFER_MISS:  188737964
 DBUS AVG_CONGESTED_CYCLE:    3.89475
 WQ ROW_BUFFER_HIT:      55062  ROW_BUFFER_MISS:     931503  FULL:          0


CPU 0 Branch Prediction Accuracy: 99.0805% MPKI: 1.73292 Average ROB Occupancy at Mispredict: 42.9398
Branch type MPKI
BRANCH_DIRECT_JUMP: 0
BRANCH_INDIRECT: 0
BRANCH_CONDITIONAL: 1.73292
BRANCH_DIRECT_CALL: 0
BRANCH_INDIRECT_CALL: 0
BRANCH_RETURN: 0

