
*** ChampSim Multicore Out-of-Order Simulator ***

Warmup Instructions: 500000000
Simulation Instructions: 1500000000
Number of CPUs: 1
Off-chip DRAM Size: 4 GiB Channels: 1 Width: 64-bit Data Rate: 3200 MT/s

VirtualMemory physical capacity: 8588881920 num_ppages: 2096895
VirtualMemory page size: 4096 log2_page_size: 12

CPU 0 runs traces/607.cactuBSSN_s-2421B.champsimtrace.xz
CPU 0 Bimodal branch predictor
Basic BTB sets: 1024 ways: 8 indirect buffer size: 4096 RAS size: 64
Initializing LRU.
Initializing LRU.
Initializing LRU.
Initializing LRU.
Initializing rdLRU.
Initializing LRU.
Initializing LRU.
Heartbeat CPU 0 instructions: 10000001 cycles: 3699725 heartbeat IPC: 2.7029 cumulative IPC: 2.7029 (Simulation time: 0 hr 1 min 8 sec) 
Heartbeat CPU 0 instructions: 20000004 cycles: 7398229 heartbeat IPC: 2.7038 cumulative IPC: 2.70335 (Simulation time: 0 hr 2 min 45 sec) 
Heartbeat CPU 0 instructions: 30000002 cycles: 11097841 heartbeat IPC: 2.70299 cumulative IPC: 2.70323 (Simulation time: 0 hr 4 min 40 sec) 
Heartbeat CPU 0 instructions: 40000002 cycles: 14797432 heartbeat IPC: 2.703 cumulative IPC: 2.70317 (Simulation time: 0 hr 6 min 15 sec) 
Heartbeat CPU 0 instructions: 50000003 cycles: 18497076 heartbeat IPC: 2.70296 cumulative IPC: 2.70313 (Simulation time: 0 hr 7 min 28 sec) 
Heartbeat CPU 0 instructions: 60000001 cycles: 21395114 heartbeat IPC: 3.45061 cumulative IPC: 2.80438 (Simulation time: 0 hr 8 min 23 sec) 
Heartbeat CPU 0 instructions: 70000000 cycles: 24110914 heartbeat IPC: 3.68216 cumulative IPC: 2.90325 (Simulation time: 0 hr 9 min 17 sec) 
Heartbeat CPU 0 instructions: 80000004 cycles: 26826637 heartbeat IPC: 3.68226 cumulative IPC: 2.98211 (Simulation time: 0 hr 10 min 3 sec) 
Heartbeat CPU 0 instructions: 90000004 cycles: 29542359 heartbeat IPC: 3.68226 cumulative IPC: 3.04647 (Simulation time: 0 hr 10 min 49 sec) 
Heartbeat CPU 0 instructions: 100000000 cycles: 32258114 heartbeat IPC: 3.68222 cumulative IPC: 3.1 (Simulation time: 0 hr 11 min 41 sec) 
Heartbeat CPU 0 instructions: 110000002 cycles: 34973879 heartbeat IPC: 3.6822 cumulative IPC: 3.1452 (Simulation time: 0 hr 12 min 35 sec) 
Heartbeat CPU 0 instructions: 120000000 cycles: 37689649 heartbeat IPC: 3.6822 cumulative IPC: 3.1839 (Simulation time: 0 hr 13 min 24 sec) 
Heartbeat CPU 0 instructions: 130000000 cycles: 40405374 heartbeat IPC: 3.68226 cumulative IPC: 3.21739 (Simulation time: 0 hr 14 min 10 sec) 
Heartbeat CPU 0 instructions: 140000003 cycles: 43121099 heartbeat IPC: 3.68226 cumulative IPC: 3.24667 (Simulation time: 0 hr 15 min 3 sec) 
Heartbeat CPU 0 instructions: 150000001 cycles: 45836867 heartbeat IPC: 3.6822 cumulative IPC: 3.27248 (Simulation time: 0 hr 16 min 8 sec) 
Heartbeat CPU 0 instructions: 160000002 cycles: 48552678 heartbeat IPC: 3.68214 cumulative IPC: 3.29539 (Simulation time: 0 hr 17 min 2 sec) 
Heartbeat CPU 0 instructions: 170000002 cycles: 51268387 heartbeat IPC: 3.68228 cumulative IPC: 3.31588 (Simulation time: 0 hr 17 min 49 sec) 
Heartbeat CPU 0 instructions: 180000001 cycles: 53984110 heartbeat IPC: 3.68226 cumulative IPC: 3.33431 (Simulation time: 0 hr 18 min 58 sec) 
Heartbeat CPU 0 instructions: 190000004 cycles: 56699870 heartbeat IPC: 3.68221 cumulative IPC: 3.35098 (Simulation time: 0 hr 20 min 5 sec) 
Heartbeat CPU 0 instructions: 200000004 cycles: 59415642 heartbeat IPC: 3.68219 cumulative IPC: 3.36612 (Simulation time: 0 hr 20 min 57 sec) 
Heartbeat CPU 0 instructions: 210000003 cycles: 62131400 heartbeat IPC: 3.68221 cumulative IPC: 3.37993 (Simulation time: 0 hr 21 min 57 sec) 
Heartbeat CPU 0 instructions: 220000003 cycles: 64847122 heartbeat IPC: 3.68226 cumulative IPC: 3.39259 (Simulation time: 0 hr 23 min 8 sec) 
Heartbeat CPU 0 instructions: 230000001 cycles: 67562866 heartbeat IPC: 3.68223 cumulative IPC: 3.40424 (Simulation time: 0 hr 24 min 8 sec) 
Heartbeat CPU 0 instructions: 240000002 cycles: 70278615 heartbeat IPC: 3.68223 cumulative IPC: 3.41498 (Simulation time: 0 hr 25 min 21 sec) 
Heartbeat CPU 0 instructions: 250000003 cycles: 72994435 heartbeat IPC: 3.68213 cumulative IPC: 3.42492 (Simulation time: 0 hr 26 min 14 sec) 
Heartbeat CPU 0 instructions: 260000000 cycles: 75710131 heartbeat IPC: 3.6823 cumulative IPC: 3.43415 (Simulation time: 0 hr 26 min 57 sec) 
Heartbeat CPU 0 instructions: 270000001 cycles: 78425863 heartbeat IPC: 3.68225 cumulative IPC: 3.44274 (Simulation time: 0 hr 27 min 56 sec) 
Heartbeat CPU 0 instructions: 280000002 cycles: 81141618 heartbeat IPC: 3.68222 cumulative IPC: 3.45076 (Simulation time: 0 hr 28 min 40 sec) 
Heartbeat CPU 0 instructions: 290000000 cycles: 83857408 heartbeat IPC: 3.68217 cumulative IPC: 3.45825 (Simulation time: 0 hr 29 min 25 sec) 
Heartbeat CPU 0 instructions: 300000000 cycles: 86573150 heartbeat IPC: 3.68224 cumulative IPC: 3.46528 (Simulation time: 0 hr 30 min 9 sec) 
Heartbeat CPU 0 instructions: 310000002 cycles: 89288872 heartbeat IPC: 3.68226 cumulative IPC: 3.47188 (Simulation time: 0 hr 30 min 57 sec) 
Heartbeat CPU 0 instructions: 320000003 cycles: 92004627 heartbeat IPC: 3.68222 cumulative IPC: 3.47809 (Simulation time: 0 hr 32 min 2 sec) 
Heartbeat CPU 0 instructions: 330000001 cycles: 94720381 heartbeat IPC: 3.68222 cumulative IPC: 3.48394 (Simulation time: 0 hr 32 min 49 sec) 
Heartbeat CPU 0 instructions: 340000002 cycles: 97436183 heartbeat IPC: 3.68215 cumulative IPC: 3.48946 (Simulation time: 0 hr 33 min 33 sec) 
Heartbeat CPU 0 instructions: 350000000 cycles: 100151888 heartbeat IPC: 3.68228 cumulative IPC: 3.49469 (Simulation time: 0 hr 34 min 28 sec) 
Heartbeat CPU 0 instructions: 360000002 cycles: 102867611 heartbeat IPC: 3.68226 cumulative IPC: 3.49964 (Simulation time: 0 hr 35 min 15 sec) 
Heartbeat CPU 0 instructions: 370000000 cycles: 105583381 heartbeat IPC: 3.6822 cumulative IPC: 3.50434 (Simulation time: 0 hr 36 min 15 sec) 
Heartbeat CPU 0 instructions: 380000002 cycles: 108299186 heartbeat IPC: 3.68215 cumulative IPC: 3.5088 (Simulation time: 0 hr 37 min 12 sec) 
Heartbeat CPU 0 instructions: 390000001 cycles: 111014901 heartbeat IPC: 3.68227 cumulative IPC: 3.51304 (Simulation time: 0 hr 37 min 59 sec) 
Heartbeat CPU 0 instructions: 400000002 cycles: 113730625 heartbeat IPC: 3.68226 cumulative IPC: 3.51708 (Simulation time: 0 hr 38 min 43 sec) 
Heartbeat CPU 0 instructions: 410000002 cycles: 116446386 heartbeat IPC: 3.68221 cumulative IPC: 3.52093 (Simulation time: 0 hr 39 min 42 sec) 
Heartbeat CPU 0 instructions: 420000000 cycles: 119162150 heartbeat IPC: 3.6822 cumulative IPC: 3.52461 (Simulation time: 0 hr 40 min 26 sec) 
Heartbeat CPU 0 instructions: 430000004 cycles: 121877937 heartbeat IPC: 3.68218 cumulative IPC: 3.52812 (Simulation time: 0 hr 41 min 19 sec) 
Heartbeat CPU 0 instructions: 440000004 cycles: 124593639 heartbeat IPC: 3.68229 cumulative IPC: 3.53148 (Simulation time: 0 hr 42 min 3 sec) 
Heartbeat CPU 0 instructions: 450000003 cycles: 127309379 heartbeat IPC: 3.68224 cumulative IPC: 3.5347 (Simulation time: 0 hr 42 min 47 sec) 
Heartbeat CPU 0 instructions: 460000001 cycles: 130025135 heartbeat IPC: 3.68222 cumulative IPC: 3.53778 (Simulation time: 0 hr 43 min 47 sec) 
Heartbeat CPU 0 instructions: 470000000 cycles: 132740949 heartbeat IPC: 3.68214 cumulative IPC: 3.54073 (Simulation time: 0 hr 45 min 2 sec) 
Heartbeat CPU 0 instructions: 480000002 cycles: 135456652 heartbeat IPC: 3.68229 cumulative IPC: 3.54357 (Simulation time: 0 hr 46 min 19 sec) 
Heartbeat CPU 0 instructions: 490000002 cycles: 138172374 heartbeat IPC: 3.68226 cumulative IPC: 3.54629 (Simulation time: 0 hr 47 min 35 sec) 
Heartbeat CPU 0 instructions: 500000003 cycles: 140888136 heartbeat IPC: 3.68221 cumulative IPC: 3.54891 (Simulation time: 0 hr 48 min 51 sec) 

Warmup complete CPU 0 instructions: 500000003 cycles: 140888136 (Simulation time: 0 hr 48 min 51 sec) 

Heartbeat CPU 0 instructions: 510000001 cycles: 150661084 heartbeat IPC: 1.02323 cumulative IPC: 1.02323 (Simulation time: 0 hr 51 min 5 sec) 
Heartbeat CPU 0 instructions: 520000000 cycles: 160523203 heartbeat IPC: 1.01398 cumulative IPC: 1.01859 (Simulation time: 0 hr 53 min 6 sec) 
Heartbeat CPU 0 instructions: 530000004 cycles: 170298844 heartbeat IPC: 1.02295 cumulative IPC: 1.02004 (Simulation time: 0 hr 54 min 41 sec) 
Heartbeat CPU 0 instructions: 540000001 cycles: 180030743 heartbeat IPC: 1.02755 cumulative IPC: 1.0219 (Simulation time: 0 hr 56 min 26 sec) 
Heartbeat CPU 0 instructions: 550000002 cycles: 189839985 heartbeat IPC: 1.01945 cumulative IPC: 1.02141 (Simulation time: 0 hr 59 min 9 sec) 
Heartbeat CPU 0 instructions: 560000002 cycles: 199588409 heartbeat IPC: 1.02581 cumulative IPC: 1.02214 (Simulation time: 1 hr 1 min 52 sec) 
Heartbeat CPU 0 instructions: 570000004 cycles: 209301579 heartbeat IPC: 1.02953 cumulative IPC: 1.02319 (Simulation time: 1 hr 3 min 21 sec) 
Heartbeat CPU 0 instructions: 580000004 cycles: 219033692 heartbeat IPC: 1.02753 cumulative IPC: 1.02373 (Simulation time: 1 hr 4 min 48 sec) 
Heartbeat CPU 0 instructions: 590000004 cycles: 228813283 heartbeat IPC: 1.02254 cumulative IPC: 1.0236 (Simulation time: 1 hr 6 min 14 sec) 
Heartbeat CPU 0 instructions: 600000000 cycles: 238596076 heartbeat IPC: 1.0222 cumulative IPC: 1.02346 (Simulation time: 1 hr 7 min 40 sec) 
Heartbeat CPU 0 instructions: 610000002 cycles: 248390377 heartbeat IPC: 1.021 cumulative IPC: 1.02323 (Simulation time: 1 hr 9 min 22 sec) 
Heartbeat CPU 0 instructions: 620000000 cycles: 258238401 heartbeat IPC: 1.01543 cumulative IPC: 1.02258 (Simulation time: 1 hr 12 min 3 sec) 
Heartbeat CPU 0 instructions: 630000002 cycles: 268016905 heartbeat IPC: 1.02265 cumulative IPC: 1.02259 (Simulation time: 1 hr 13 min 36 sec) 
Heartbeat CPU 0 instructions: 640000001 cycles: 277808213 heartbeat IPC: 1.02131 cumulative IPC: 1.02249 (Simulation time: 1 hr 15 min 3 sec) 
Heartbeat CPU 0 instructions: 650000001 cycles: 287590416 heartbeat IPC: 1.02226 cumulative IPC: 1.02248 (Simulation time: 1 hr 16 min 29 sec) 
Heartbeat CPU 0 instructions: 660000000 cycles: 297390444 heartbeat IPC: 1.02041 cumulative IPC: 1.02235 (Simulation time: 1 hr 17 min 55 sec) 
Heartbeat CPU 0 instructions: 670000000 cycles: 307129226 heartbeat IPC: 1.02682 cumulative IPC: 1.02261 (Simulation time: 1 hr 20 min 16 sec) 
Heartbeat CPU 0 instructions: 680000002 cycles: 316887928 heartbeat IPC: 1.02473 cumulative IPC: 1.02273 (Simulation time: 1 hr 22 min 58 sec) 
Heartbeat CPU 0 instructions: 690000000 cycles: 326664828 heartbeat IPC: 1.02282 cumulative IPC: 1.02273 (Simulation time: 1 hr 25 min 32 sec) 
Heartbeat CPU 0 instructions: 700000001 cycles: 336467333 heartbeat IPC: 1.02015 cumulative IPC: 1.0226 (Simulation time: 1 hr 27 min 0 sec) 
Heartbeat CPU 0 instructions: 710000004 cycles: 346284146 heartbeat IPC: 1.01866 cumulative IPC: 1.02242 (Simulation time: 1 hr 28 min 42 sec) 
Heartbeat CPU 0 instructions: 720000003 cycles: 356074087 heartbeat IPC: 1.02146 cumulative IPC: 1.02237 (Simulation time: 1 hr 31 min 4 sec) 
Heartbeat CPU 0 instructions: 730000000 cycles: 365874379 heartbeat IPC: 1.02038 cumulative IPC: 1.02228 (Simulation time: 1 hr 33 min 27 sec) 
Heartbeat CPU 0 instructions: 740000004 cycles: 375681307 heartbeat IPC: 1.01969 cumulative IPC: 1.02218 (Simulation time: 1 hr 35 min 14 sec) 
Heartbeat CPU 0 instructions: 750000000 cycles: 385450943 heartbeat IPC: 1.02358 cumulative IPC: 1.02223 (Simulation time: 1 hr 37 min 56 sec) 
Heartbeat CPU 0 instructions: 760000000 cycles: 395257966 heartbeat IPC: 1.01968 cumulative IPC: 1.02213 (Simulation time: 1 hr 40 min 15 sec) 
Heartbeat CPU 0 instructions: 770000002 cycles: 404967258 heartbeat IPC: 1.02994 cumulative IPC: 1.02242 (Simulation time: 1 hr 41 min 43 sec) 
Heartbeat CPU 0 instructions: 780000003 cycles: 414773638 heartbeat IPC: 1.01974 cumulative IPC: 1.02233 (Simulation time: 1 hr 43 min 11 sec) 
Heartbeat CPU 0 instructions: 790000003 cycles: 424559020 heartbeat IPC: 1.02193 cumulative IPC: 1.02231 (Simulation time: 1 hr 44 min 38 sec) 
Heartbeat CPU 0 instructions: 800000002 cycles: 434409682 heartbeat IPC: 1.01516 cumulative IPC: 1.02207 (Simulation time: 1 hr 46 min 7 sec) 
Heartbeat CPU 0 instructions: 810000000 cycles: 444146162 heartbeat IPC: 1.02707 cumulative IPC: 1.02223 (Simulation time: 1 hr 48 min 40 sec) 
Heartbeat CPU 0 instructions: 820000004 cycles: 453947847 heartbeat IPC: 1.02023 cumulative IPC: 1.02217 (Simulation time: 1 hr 50 min 35 sec) 
Heartbeat CPU 0 instructions: 830000004 cycles: 463749383 heartbeat IPC: 1.02025 cumulative IPC: 1.02211 (Simulation time: 1 hr 52 min 35 sec) 
Heartbeat CPU 0 instructions: 840000000 cycles: 473440466 heartbeat IPC: 1.03188 cumulative IPC: 1.0224 (Simulation time: 1 hr 54 min 44 sec) 
Heartbeat CPU 0 instructions: 850000000 cycles: 483194636 heartbeat IPC: 1.0252 cumulative IPC: 1.02248 (Simulation time: 1 hr 56 min 11 sec) 
Heartbeat CPU 0 instructions: 860000004 cycles: 492964781 heartbeat IPC: 1.02353 cumulative IPC: 1.0225 (Simulation time: 1 hr 57 min 39 sec) 
Heartbeat CPU 0 instructions: 870000004 cycles: 502672372 heartbeat IPC: 1.03012 cumulative IPC: 1.02271 (Simulation time: 1 hr 59 min 8 sec) 
Heartbeat CPU 0 instructions: 880000001 cycles: 512472665 heartbeat IPC: 1.02038 cumulative IPC: 1.02265 (Simulation time: 2 hr 0 min 37 sec) 
Heartbeat CPU 0 instructions: 890000003 cycles: 522226090 heartbeat IPC: 1.02528 cumulative IPC: 1.02271 (Simulation time: 2 hr 2 min 5 sec) 
Heartbeat CPU 0 instructions: 900000004 cycles: 532063478 heartbeat IPC: 1.01653 cumulative IPC: 1.02256 (Simulation time: 2 hr 3 min 33 sec) 
Heartbeat CPU 0 instructions: 910000000 cycles: 541803314 heartbeat IPC: 1.02671 cumulative IPC: 1.02266 (Simulation time: 2 hr 5 min 0 sec) 
Heartbeat CPU 0 instructions: 920000000 cycles: 551534051 heartbeat IPC: 1.02767 cumulative IPC: 1.02278 (Simulation time: 2 hr 7 min 10 sec) 
Heartbeat CPU 0 instructions: 930000003 cycles: 561279602 heartbeat IPC: 1.02611 cumulative IPC: 1.02286 (Simulation time: 2 hr 9 min 52 sec) 
Heartbeat CPU 0 instructions: 940000004 cycles: 571083708 heartbeat IPC: 1.01998 cumulative IPC: 1.02279 (Simulation time: 2 hr 12 min 35 sec) 
Heartbeat CPU 0 instructions: 950000003 cycles: 580829508 heartbeat IPC: 1.02608 cumulative IPC: 1.02286 (Simulation time: 2 hr 15 min 18 sec) 
Heartbeat CPU 0 instructions: 960000001 cycles: 590623643 heartbeat IPC: 1.02102 cumulative IPC: 1.02282 (Simulation time: 2 hr 17 min 36 sec) 
Heartbeat CPU 0 instructions: 970000002 cycles: 600409553 heartbeat IPC: 1.02188 cumulative IPC: 1.0228 (Simulation time: 2 hr 20 min 18 sec) 
Heartbeat CPU 0 instructions: 980000001 cycles: 610182655 heartbeat IPC: 1.02322 cumulative IPC: 1.02281 (Simulation time: 2 hr 21 min 48 sec) 
Heartbeat CPU 0 instructions: 990000001 cycles: 620032259 heartbeat IPC: 1.01527 cumulative IPC: 1.02266 (Simulation time: 2 hr 23 min 17 sec) 
Heartbeat CPU 0 instructions: 1000000003 cycles: 629801509 heartbeat IPC: 1.02362 cumulative IPC: 1.02268 (Simulation time: 2 hr 24 min 46 sec) 
Heartbeat CPU 0 instructions: 1010000001 cycles: 639594167 heartbeat IPC: 1.02117 cumulative IPC: 1.02265 (Simulation time: 2 hr 26 min 31 sec) 
Heartbeat CPU 0 instructions: 1020000000 cycles: 649344029 heartbeat IPC: 1.02566 cumulative IPC: 1.0227 (Simulation time: 2 hr 28 min 7 sec) 
Heartbeat CPU 0 instructions: 1030000000 cycles: 659128041 heartbeat IPC: 1.02208 cumulative IPC: 1.02269 (Simulation time: 2 hr 29 min 34 sec) 
Heartbeat CPU 0 instructions: 1040000002 cycles: 668885495 heartbeat IPC: 1.02486 cumulative IPC: 1.02273 (Simulation time: 2 hr 31 min 1 sec) 
Heartbeat CPU 0 instructions: 1050000002 cycles: 678687866 heartbeat IPC: 1.02016 cumulative IPC: 1.02269 (Simulation time: 2 hr 32 min 28 sec) 
Heartbeat CPU 0 instructions: 1060000003 cycles: 688459751 heartbeat IPC: 1.02334 cumulative IPC: 1.0227 (Simulation time: 2 hr 33 min 54 sec) 
Heartbeat CPU 0 instructions: 1070000001 cycles: 698250156 heartbeat IPC: 1.02141 cumulative IPC: 1.02267 (Simulation time: 2 hr 35 min 23 sec) 
Heartbeat CPU 0 instructions: 1080000004 cycles: 708095969 heartbeat IPC: 1.01566 cumulative IPC: 1.02255 (Simulation time: 2 hr 37 min 15 sec) 
Heartbeat CPU 0 instructions: 1090000002 cycles: 717880529 heartbeat IPC: 1.02202 cumulative IPC: 1.02254 (Simulation time: 2 hr 38 min 56 sec) 
Heartbeat CPU 0 instructions: 1100000000 cycles: 727674500 heartbeat IPC: 1.02104 cumulative IPC: 1.02252 (Simulation time: 2 hr 40 min 26 sec) 
Heartbeat CPU 0 instructions: 1110000001 cycles: 737484136 heartbeat IPC: 1.01941 cumulative IPC: 1.02247 (Simulation time: 2 hr 41 min 58 sec) 
Heartbeat CPU 0 instructions: 1120000000 cycles: 747230137 heartbeat IPC: 1.02606 cumulative IPC: 1.02253 (Simulation time: 2 hr 43 min 31 sec) 
Heartbeat CPU 0 instructions: 1130000001 cycles: 756975244 heartbeat IPC: 1.02616 cumulative IPC: 1.02258 (Simulation time: 2 hr 45 min 4 sec) 
Heartbeat CPU 0 instructions: 1140000001 cycles: 766781228 heartbeat IPC: 1.01979 cumulative IPC: 1.02254 (Simulation time: 2 hr 46 min 35 sec) 
Heartbeat CPU 0 instructions: 1150000003 cycles: 776516022 heartbeat IPC: 1.02724 cumulative IPC: 1.02261 (Simulation time: 2 hr 48 min 7 sec) 
Heartbeat CPU 0 instructions: 1160000004 cycles: 786260042 heartbeat IPC: 1.02627 cumulative IPC: 1.02267 (Simulation time: 2 hr 49 min 33 sec) 
Heartbeat CPU 0 instructions: 1170000001 cycles: 796065143 heartbeat IPC: 1.01988 cumulative IPC: 1.02262 (Simulation time: 2 hr 51 min 0 sec) 
Heartbeat CPU 0 instructions: 1180000001 cycles: 805896827 heartbeat IPC: 1.01712 cumulative IPC: 1.02254 (Simulation time: 2 hr 52 min 27 sec) 
Heartbeat CPU 0 instructions: 1190000002 cycles: 815674804 heartbeat IPC: 1.02271 cumulative IPC: 1.02255 (Simulation time: 2 hr 53 min 58 sec) 
Heartbeat CPU 0 instructions: 1200000001 cycles: 825391003 heartbeat IPC: 1.02921 cumulative IPC: 1.02264 (Simulation time: 2 hr 55 min 38 sec) 
Heartbeat CPU 0 instructions: 1210000001 cycles: 835161988 heartbeat IPC: 1.02344 cumulative IPC: 1.02265 (Simulation time: 2 hr 57 min 5 sec) 
Heartbeat CPU 0 instructions: 1220000002 cycles: 844909385 heartbeat IPC: 1.02592 cumulative IPC: 1.0227 (Simulation time: 2 hr 58 min 31 sec) 
Heartbeat CPU 0 instructions: 1230000002 cycles: 854636074 heartbeat IPC: 1.0281 cumulative IPC: 1.02277 (Simulation time: 2 hr 59 min 58 sec) 
Heartbeat CPU 0 instructions: 1240000000 cycles: 864427967 heartbeat IPC: 1.02125 cumulative IPC: 1.02275 (Simulation time: 3 hr 1 min 25 sec) 
Heartbeat CPU 0 instructions: 1250000000 cycles: 874195751 heartbeat IPC: 1.02377 cumulative IPC: 1.02276 (Simulation time: 3 hr 2 min 58 sec) 
Heartbeat CPU 0 instructions: 1260000000 cycles: 883888350 heartbeat IPC: 1.03172 cumulative IPC: 1.02288 (Simulation time: 3 hr 4 min 30 sec) 
Heartbeat CPU 0 instructions: 1270000004 cycles: 893758774 heartbeat IPC: 1.01313 cumulative IPC: 1.02275 (Simulation time: 3 hr 6 min 2 sec) 
Heartbeat CPU 0 instructions: 1280000003 cycles: 903526547 heartbeat IPC: 1.02377 cumulative IPC: 1.02277 (Simulation time: 3 hr 7 min 34 sec) 
Heartbeat CPU 0 instructions: 1290000001 cycles: 913225954 heartbeat IPC: 1.03099 cumulative IPC: 1.02287 (Simulation time: 3 hr 9 min 5 sec) 
Heartbeat CPU 0 instructions: 1300000000 cycles: 922950334 heartbeat IPC: 1.02834 cumulative IPC: 1.02294 (Simulation time: 3 hr 10 min 31 sec) 
Heartbeat CPU 0 instructions: 1310000000 cycles: 932740718 heartbeat IPC: 1.02141 cumulative IPC: 1.02292 (Simulation time: 3 hr 11 min 57 sec) 
Heartbeat CPU 0 instructions: 1320000001 cycles: 942524475 heartbeat IPC: 1.0221 cumulative IPC: 1.02291 (Simulation time: 3 hr 13 min 23 sec) 
Heartbeat CPU 0 instructions: 1330000003 cycles: 952333006 heartbeat IPC: 1.01952 cumulative IPC: 1.02287 (Simulation time: 3 hr 14 min 50 sec) 
Heartbeat CPU 0 instructions: 1340000000 cycles: 962085285 heartbeat IPC: 1.0254 cumulative IPC: 1.0229 (Simulation time: 3 hr 16 min 18 sec) 
Heartbeat CPU 0 instructions: 1350000004 cycles: 971866531 heartbeat IPC: 1.02237 cumulative IPC: 1.02289 (Simulation time: 3 hr 17 min 46 sec) 
Heartbeat CPU 0 instructions: 1360000002 cycles: 981710485 heartbeat IPC: 1.01585 cumulative IPC: 1.02281 (Simulation time: 3 hr 19 min 15 sec) 
Heartbeat CPU 0 instructions: 1370000003 cycles: 991442451 heartbeat IPC: 1.02754 cumulative IPC: 1.02286 (Simulation time: 3 hr 20 min 44 sec) 
Heartbeat CPU 0 instructions: 1380000002 cycles: 1001230672 heartbeat IPC: 1.02164 cumulative IPC: 1.02285 (Simulation time: 3 hr 22 min 12 sec) 
Heartbeat CPU 0 instructions: 1390000000 cycles: 1010983629 heartbeat IPC: 1.02533 cumulative IPC: 1.02288 (Simulation time: 3 hr 23 min 40 sec) 
Heartbeat CPU 0 instructions: 1400000000 cycles: 1020757992 heartbeat IPC: 1.02308 cumulative IPC: 1.02288 (Simulation time: 3 hr 25 min 9 sec) 
Heartbeat CPU 0 instructions: 1410000000 cycles: 1030533940 heartbeat IPC: 1.02292 cumulative IPC: 1.02288 (Simulation time: 3 hr 26 min 38 sec) 
Heartbeat CPU 0 instructions: 1420000003 cycles: 1040350671 heartbeat IPC: 1.01867 cumulative IPC: 1.02283 (Simulation time: 3 hr 28 min 4 sec) 
Heartbeat CPU 0 instructions: 1430000002 cycles: 1050113223 heartbeat IPC: 1.02432 cumulative IPC: 1.02285 (Simulation time: 3 hr 29 min 30 sec) 
Heartbeat CPU 0 instructions: 1440000003 cycles: 1059853479 heartbeat IPC: 1.02667 cumulative IPC: 1.02289 (Simulation time: 3 hr 30 min 57 sec) 
Heartbeat CPU 0 instructions: 1450000000 cycles: 1069580894 heartbeat IPC: 1.02802 cumulative IPC: 1.02294 (Simulation time: 3 hr 32 min 23 sec) 
Heartbeat CPU 0 instructions: 1460000000 cycles: 1079420896 heartbeat IPC: 1.01626 cumulative IPC: 1.02287 (Simulation time: 3 hr 33 min 50 sec) 
Heartbeat CPU 0 instructions: 1470000000 cycles: 1089194881 heartbeat IPC: 1.02312 cumulative IPC: 1.02288 (Simulation time: 3 hr 35 min 16 sec) 
Heartbeat CPU 0 instructions: 1480000004 cycles: 1098944613 heartbeat IPC: 1.02567 cumulative IPC: 1.0229 (Simulation time: 3 hr 36 min 43 sec) 
Heartbeat CPU 0 instructions: 1490000003 cycles: 1108717425 heartbeat IPC: 1.02325 cumulative IPC: 1.02291 (Simulation time: 3 hr 38 min 9 sec) 
Heartbeat CPU 0 instructions: 1500000001 cycles: 1118497771 heartbeat IPC: 1.02246 cumulative IPC: 1.0229 (Simulation time: 3 hr 39 min 36 sec) 
Heartbeat CPU 0 instructions: 1510000004 cycles: 1128321552 heartbeat IPC: 1.01794 cumulative IPC: 1.02285 (Simulation time: 3 hr 41 min 2 sec) 
Heartbeat CPU 0 instructions: 1520000004 cycles: 1138089236 heartbeat IPC: 1.02378 cumulative IPC: 1.02286 (Simulation time: 3 hr 42 min 27 sec) 
Heartbeat CPU 0 instructions: 1530000001 cycles: 1147845185 heartbeat IPC: 1.02502 cumulative IPC: 1.02288 (Simulation time: 3 hr 43 min 55 sec) 
Heartbeat CPU 0 instructions: 1540000004 cycles: 1157636714 heartbeat IPC: 1.02129 cumulative IPC: 1.02287 (Simulation time: 3 hr 45 min 21 sec) 
Heartbeat CPU 0 instructions: 1550000001 cycles: 1167484001 heartbeat IPC: 1.01551 cumulative IPC: 1.0228 (Simulation time: 3 hr 46 min 48 sec) 
Heartbeat CPU 0 instructions: 1560000004 cycles: 1177243624 heartbeat IPC: 1.02463 cumulative IPC: 1.02282 (Simulation time: 3 hr 48 min 16 sec) 
Heartbeat CPU 0 instructions: 1570000003 cycles: 1187008762 heartbeat IPC: 1.02405 cumulative IPC: 1.02283 (Simulation time: 3 hr 49 min 43 sec) 
Heartbeat CPU 0 instructions: 1580000001 cycles: 1196782151 heartbeat IPC: 1.02319 cumulative IPC: 1.02283 (Simulation time: 3 hr 51 min 10 sec) 
Heartbeat CPU 0 instructions: 1590000004 cycles: 1206512850 heartbeat IPC: 1.02768 cumulative IPC: 1.02287 (Simulation time: 3 hr 52 min 37 sec) 
Heartbeat CPU 0 instructions: 1600000004 cycles: 1216279580 heartbeat IPC: 1.02388 cumulative IPC: 1.02288 (Simulation time: 3 hr 54 min 4 sec) 
Heartbeat CPU 0 instructions: 1610000000 cycles: 1226073891 heartbeat IPC: 1.021 cumulative IPC: 1.02287 (Simulation time: 3 hr 55 min 30 sec) 
Heartbeat CPU 0 instructions: 1620000002 cycles: 1235860509 heartbeat IPC: 1.0218 cumulative IPC: 1.02286 (Simulation time: 3 hr 56 min 57 sec) 
Heartbeat CPU 0 instructions: 1630000003 cycles: 1245596235 heartbeat IPC: 1.02714 cumulative IPC: 1.02289 (Simulation time: 3 hr 58 min 24 sec) 
Heartbeat CPU 0 instructions: 1640000003 cycles: 1255432207 heartbeat IPC: 1.01668 cumulative IPC: 1.02284 (Simulation time: 3 hr 59 min 51 sec) 
Heartbeat CPU 0 instructions: 1650000001 cycles: 1265207777 heartbeat IPC: 1.02296 cumulative IPC: 1.02284 (Simulation time: 4 hr 1 min 18 sec) 
Heartbeat CPU 0 instructions: 1660000002 cycles: 1274963141 heartbeat IPC: 1.02508 cumulative IPC: 1.02286 (Simulation time: 4 hr 2 min 45 sec) 
Heartbeat CPU 0 instructions: 1670000002 cycles: 1284723098 heartbeat IPC: 1.02459 cumulative IPC: 1.02287 (Simulation time: 4 hr 4 min 11 sec) 
Heartbeat CPU 0 instructions: 1680000003 cycles: 1294529616 heartbeat IPC: 1.01973 cumulative IPC: 1.02285 (Simulation time: 4 hr 5 min 37 sec) 
Heartbeat CPU 0 instructions: 1690000004 cycles: 1304308423 heartbeat IPC: 1.02262 cumulative IPC: 1.02285 (Simulation time: 4 hr 7 min 3 sec) 
Heartbeat CPU 0 instructions: 1700000002 cycles: 1314049822 heartbeat IPC: 1.02655 cumulative IPC: 1.02288 (Simulation time: 4 hr 8 min 29 sec) 
Heartbeat CPU 0 instructions: 1710000002 cycles: 1323793894 heartbeat IPC: 1.02627 cumulative IPC: 1.0229 (Simulation time: 4 hr 9 min 56 sec) 
Heartbeat CPU 0 instructions: 1720000002 cycles: 1333542900 heartbeat IPC: 1.02575 cumulative IPC: 1.02293 (Simulation time: 4 hr 11 min 24 sec) 
Heartbeat CPU 0 instructions: 1730000002 cycles: 1343319788 heartbeat IPC: 1.02282 cumulative IPC: 1.02293 (Simulation time: 4 hr 12 min 50 sec) 
Heartbeat CPU 0 instructions: 1740000001 cycles: 1353169448 heartbeat IPC: 1.01526 cumulative IPC: 1.02286 (Simulation time: 4 hr 14 min 18 sec) 
Heartbeat CPU 0 instructions: 1750000001 cycles: 1362892346 heartbeat IPC: 1.0285 cumulative IPC: 1.02291 (Simulation time: 4 hr 15 min 45 sec) 
Heartbeat CPU 0 instructions: 1760000000 cycles: 1372601543 heartbeat IPC: 1.02995 cumulative IPC: 1.02297 (Simulation time: 4 hr 17 min 11 sec) 
Heartbeat CPU 0 instructions: 1770000002 cycles: 1382379205 heartbeat IPC: 1.02274 cumulative IPC: 1.02296 (Simulation time: 4 hr 18 min 37 sec) 
Heartbeat CPU 0 instructions: 1780000002 cycles: 1392137176 heartbeat IPC: 1.0248 cumulative IPC: 1.02298 (Simulation time: 4 hr 20 min 4 sec) 
Heartbeat CPU 0 instructions: 1790000001 cycles: 1401855507 heartbeat IPC: 1.02898 cumulative IPC: 1.02302 (Simulation time: 4 hr 21 min 31 sec) 
Heartbeat CPU 0 instructions: 1800000001 cycles: 1411661002 heartbeat IPC: 1.01984 cumulative IPC: 1.023 (Simulation time: 4 hr 22 min 58 sec) 
Heartbeat CPU 0 instructions: 1810000003 cycles: 1421444004 heartbeat IPC: 1.02218 cumulative IPC: 1.02299 (Simulation time: 4 hr 24 min 25 sec) 
Heartbeat CPU 0 instructions: 1820000000 cycles: 1431220644 heartbeat IPC: 1.02285 cumulative IPC: 1.02299 (Simulation time: 4 hr 25 min 51 sec) 
Heartbeat CPU 0 instructions: 1830000003 cycles: 1441073563 heartbeat IPC: 1.01493 cumulative IPC: 1.02293 (Simulation time: 4 hr 27 min 17 sec) 
Heartbeat CPU 0 instructions: 1840000001 cycles: 1450788577 heartbeat IPC: 1.02933 cumulative IPC: 1.02298 (Simulation time: 4 hr 28 min 43 sec) 
Heartbeat CPU 0 instructions: 1850000000 cycles: 1460547515 heartbeat IPC: 1.0247 cumulative IPC: 1.02299 (Simulation time: 4 hr 30 min 9 sec) 
Heartbeat CPU 0 instructions: 1860000002 cycles: 1470337769 heartbeat IPC: 1.02142 cumulative IPC: 1.02298 (Simulation time: 4 hr 31 min 34 sec) 
Heartbeat CPU 0 instructions: 1870000000 cycles: 1480098786 heartbeat IPC: 1.02448 cumulative IPC: 1.02299 (Simulation time: 4 hr 33 min 0 sec) 
Heartbeat CPU 0 instructions: 1880000000 cycles: 1489903504 heartbeat IPC: 1.01992 cumulative IPC: 1.02297 (Simulation time: 4 hr 34 min 26 sec) 
Heartbeat CPU 0 instructions: 1890000003 cycles: 1499634132 heartbeat IPC: 1.02768 cumulative IPC: 1.023 (Simulation time: 4 hr 35 min 51 sec) 
Heartbeat CPU 0 instructions: 1900000000 cycles: 1509401415 heartbeat IPC: 1.02383 cumulative IPC: 1.02301 (Simulation time: 4 hr 37 min 18 sec) 
Heartbeat CPU 0 instructions: 1910000004 cycles: 1519181340 heartbeat IPC: 1.0225 cumulative IPC: 1.023 (Simulation time: 4 hr 38 min 44 sec) 
Heartbeat CPU 0 instructions: 1920000003 cycles: 1529027765 heartbeat IPC: 1.0156 cumulative IPC: 1.02295 (Simulation time: 4 hr 40 min 10 sec) 
Heartbeat CPU 0 instructions: 1930000004 cycles: 1538826285 heartbeat IPC: 1.02056 cumulative IPC: 1.02294 (Simulation time: 4 hr 41 min 36 sec) 
Heartbeat CPU 0 instructions: 1940000004 cycles: 1548592309 heartbeat IPC: 1.02396 cumulative IPC: 1.02294 (Simulation time: 4 hr 43 min 2 sec) 
Heartbeat CPU 0 instructions: 1950000000 cycles: 1558350251 heartbeat IPC: 1.02481 cumulative IPC: 1.02296 (Simulation time: 4 hr 44 min 27 sec) 
Heartbeat CPU 0 instructions: 1960000000 cycles: 1568121138 heartbeat IPC: 1.02345 cumulative IPC: 1.02296 (Simulation time: 4 hr 45 min 53 sec) 
Heartbeat CPU 0 instructions: 1970000004 cycles: 1577861983 heartbeat IPC: 1.02661 cumulative IPC: 1.02298 (Simulation time: 4 hr 47 min 19 sec) 
Heartbeat CPU 0 instructions: 1980000004 cycles: 1587640629 heartbeat IPC: 1.02264 cumulative IPC: 1.02298 (Simulation time: 4 hr 48 min 44 sec) 
Heartbeat CPU 0 instructions: 1990000001 cycles: 1597411924 heartbeat IPC: 1.02341 cumulative IPC: 1.02298 (Simulation time: 4 hr 50 min 10 sec) 
*** Reached end of trace: traces/607.cactuBSSN_s-2421B.champsimtrace.xz
Heartbeat CPU 0 instructions: 2000000003 cycles: 1607139820 heartbeat IPC: 1.02797 cumulative IPC: 1.02302 (Simulation time: 4 hr 51 min 36 sec) 
Finished CPU 0 instructions: 1500000000 cycles: 1466251684 cumulative IPC: 1.02302 (Simulation time: 4 hr 51 min 36 sec) 

ChampSim completed all CPUs

Region of Interest Statistics

CPU 0 cumulative IPC: 1.02302 instructions: 1500000000 cycles: 1466251684
cpu0_DTLB TOTAL     ACCESS:  271341775  HIT:  158239396  MISS:  113102379
cpu0_DTLB LOAD      ACCESS:  191585685  HIT:   80850278  MISS:  110735407
cpu0_DTLB RFO       ACCESS:   79756090  HIT:   77389118  MISS:    2366972
cpu0_DTLB PREFETCH  ACCESS:          0  HIT:          0  MISS:          0
cpu0_DTLB WRITEBACK ACCESS:          0  HIT:          0  MISS:          0
cpu0_DTLB TRANSLATION ACCESS:          0  HIT:          0  MISS:          0
cpu0_DTLB PREFETCH  REQUESTED:          0  ISSUED:          0  USEFUL:          0  USELESS:          0
cpu0_DTLB AVERAGE MISS LATENCY: 9.88122 cycles
cpu0_ITLB TOTAL     ACCESS:   28459132  HIT:   28459132  MISS:          0
cpu0_ITLB LOAD      ACCESS:   28459132  HIT:   28459132  MISS:          0
cpu0_ITLB RFO       ACCESS:          0  HIT:          0  MISS:          0
cpu0_ITLB PREFETCH  ACCESS:          0  HIT:          0  MISS:          0
cpu0_ITLB WRITEBACK ACCESS:          0  HIT:          0  MISS:          0
cpu0_ITLB TRANSLATION ACCESS:          0  HIT:          0  MISS:          0
cpu0_ITLB PREFETCH  REQUESTED:          0  ISSUED:          0  USEFUL:          0  USELESS:          0
cpu0_ITLB AVERAGE MISS LATENCY: -nan cycles
cpu0_L1I TOTAL     ACCESS:  150997378  HIT:  150997378  MISS:          0
cpu0_L1I LOAD      ACCESS:  150997378  HIT:  150997378  MISS:          0
cpu0_L1I RFO       ACCESS:          0  HIT:          0  MISS:          0
cpu0_L1I PREFETCH  ACCESS:          0  HIT:          0  MISS:          0
cpu0_L1I WRITEBACK ACCESS:          0  HIT:          0  MISS:          0
cpu0_L1I TRANSLATION ACCESS:          0  HIT:          0  MISS:          0
cpu0_L1I PREFETCH  REQUESTED:          0  ISSUED:          0  USEFUL:          0  USELESS:          0
cpu0_L1I AVERAGE MISS LATENCY: -nan cycles
cpu0_STLB TOTAL     ACCESS:  113102379  HIT:  112919517  MISS:     182862
cpu0_STLB LOAD      ACCESS:  110735407  HIT:  110552547  MISS:     182860
cpu0_STLB RFO       ACCESS:    2366972  HIT:    2366970  MISS:          2
cpu0_STLB PREFETCH  ACCESS:          0  HIT:          0  MISS:          0
cpu0_STLB WRITEBACK ACCESS:          0  HIT:          0  MISS:          0
cpu0_STLB TRANSLATION ACCESS:          0  HIT:          0  MISS:          0
cpu0_STLB PREFETCH  REQUESTED:          0  ISSUED:          0  USEFUL:          0  USELESS:          0
cpu0_STLB AVERAGE MISS LATENCY: 252.776 cycles
cpu0_L1D TOTAL     ACCESS:  419947610  HIT:  247288412  MISS:  172659198
cpu0_L1D LOAD      ACCESS:  252173707  HIT:   86071620  MISS:  166102087
cpu0_L1D RFO       ACCESS:  167593046  HIT:  161198327  MISS:    6394719
cpu0_L1D PREFETCH  ACCESS:          0  HIT:          0  MISS:          0
cpu0_L1D WRITEBACK ACCESS:          0  HIT:          0  MISS:          0
cpu0_L1D TRANSLATION ACCESS:     180857  HIT:      18465  MISS:     162392
cpu0_L1D PREFETCH  REQUESTED:          0  ISSUED:          0  USEFUL:          0  USELESS:          0
cpu0_L1D AVERAGE MISS LATENCY: 80.7208 cycles
cpu0_L2C TOTAL     ACCESS:  183188796  HIT:  163948210  MISS:   19240586
cpu0_L2C LOAD      ACCESS:  166075633  HIT:  147035177  MISS:   19040456
cpu0_L2C RFO       ACCESS:    6379945  HIT:    6224836  MISS:     155109
cpu0_L2C PREFETCH  ACCESS:          0  HIT:          0  MISS:          0
cpu0_L2C WRITEBACK ACCESS:   10570826  HIT:   10570010  MISS:        816
cpu0_L2C TRANSLATION ACCESS:     162392  HIT:     118187  MISS:      44205
cpu0_L2C PREFETCH  REQUESTED:          0  ISSUED:          0  USEFUL:          0  USELESS:          0
cpu0_L2C AVERAGE MISS LATENCY: 606.823 cycles
LLC TOTAL     ACCESS:   21014342  HIT:    9478134  MISS:   11536208
LLC LOAD      ACCESS:   18994006  HIT:    7462309  MISS:   11531697
LLC RFO       ACCESS:     150126  HIT:     150126  MISS:          0
LLC PREFETCH  ACCESS:          0  HIT:          0  MISS:          0
LLC WRITEBACK ACCESS:    1826005  HIT:    1824349  MISS:       1656
LLC TRANSLATION ACCESS:      44205  HIT:      41350  MISS:       2855
LLC PREFETCH  REQUESTED:          0  ISSUED:          0  USEFUL:          0  USELESS:          0
LLC AVERAGE MISS LATENCY: 977.15 cycles
~~~~~~~~~~Reuse Distance Profiler output~~~~~~~~~~
0	77348160	7857680
1	47818896	7576784
2	24169872	7783136
3	14702352	7119072
4	14590656	7758784
5	11194880	5288032
6	9925968	4533104
7	8294176	4360144
8	5687632	3391632
9	5130544	3624560
10	3630352	2544560
11	3111344	1944400
12	3155600	2059072
13	3259200	1780416
14	3284912	1517952
15	3112336	1239808
16	2865024	1767024
17	2535072	1296592
18	3141072	1944352
19	3376672	1811104
20	2811680	1589392
21	2436480	1551856
22	2280576	1676416
23	1681056	1226624
24	1526128	1124496
25	1368352	957776
26	1158032	872736
27	1451728	1038880
28	1325696	853344
29	1409104	907888
30	1271104	871264
31	1074384	771232
32	1241424	881760
33	1102160	732160
34	1133984	560320
35	824432	421360
36	921536	416416
37	888784	449824
38	786336	329152
39	814960	387872
40	834128	437424
41	1012240	573584
42	945600	425712
43	1008256	654304
44	1086176	640704
45	986288	629776
46	1086800	619920
47	1185072	736928
48	1183376	770848
49	1271584	776784
50	1178576	785664
51	1020864	657968
52	828112	513632
53	651008	387392
54	661936	421536
55	709440	412224
56	583680	346416
57	557184	309120
58	505216	279584
59	582272	354800
60	694544	521440
61	712896	523248
62	794320	610064
63	988384	713520
64	1831328	1308896
66	1712720	983632
68	1090032	553328
70	1071920	417888
72	994016	480784
74	977488	544352
76	916176	441248
78	778288	287872
80	762032	259040
82	841792	318304
84	864016	335680
86	732416	371920
88	693408	435840
90	580480	290336
92	592704	266592
94	692304	254416
96	443728	223856
98	428560	238928
100	487168	335168
102	662032	334752
104	575568	278976
106	713296	351136
108	843888	443712
110	601536	310224
112	598384	344000
114	463664	233968
116	404512	175008
118	460480	167216
120	318144	143456
122	374064	259280
124	331888	180656
126	245664	178400
128	638560	298112
132	449584	208832
136	541056	323952
140	372832	236368
144	377584	274336
148	340080	256576
152	269728	215376
156	209728	159744
160	375408	295328
164	439504	350576
168	513920	364784
172	448544	318896
176	576640	396240
180	485920	354768
184	361392	297584
188	397264	333440
192	454496	328992
196	431088	329392
200	344496	235136
204	260192	163088
208	306816	234672
212	339936	285296
216	320464	245552
220	260272	193168
224	335488	268112
228	412256	316032
232	450320	317360
236	460960	328176
240	518272	380704
244	421824	260784
248	410272	276624
252	348640	198304
256	564432	317392
264	568192	329872
272	574912	271280
280	739648	450736
288	580384	364592
296	703296	475568
304	1010992	727968
312	923552	580816
320	952016	581792
328	917392	538480
336	929520	551216
344	798080	571568
352	865024	598160
360	684368	496096
368	600560	449888
376	831056	671968
384	536080	393952
392	562816	471312
400	457456	399280
408	388640	336224
416	350176	311664
424	315984	237008
432	330624	182928
440	382864	174096
448	444912	182976
456	374800	157776
464	237264	104528
472	258480	121952
480	297216	122560
488	203856	59088
496	150480	31072
504	143760	31952
512	144480	29568
528	41104	26528
544	68448	25664
560	275760	63520
576	640896	188368
592	794080	265392
608	1004704	357328
624	1056992	352368
640	667712	204288
656	526528	267232
672	251456	102896
688	283472	186576
704	384816	273168
720	652992	555056
736	619392	524080
752	300896	211376
768	136544	54192
784	53472	10880
800	128688	122800
816	277648	277024
832	417280	416544
848	263616	258400
864	1076720	1072256
880	3895152	3876928
896	8975648	8708928
912	20582752	19724480
928	33321328	32469584
944	41437728	41233600
960	30687920	30668320
976	7911264	7819104
992	1261936	780320
1008	890944	130160
1024	3817744	1952112
1056	19751536	19624064
1088	18741744	18741728
1120	254208	253136
1152	11088	3216
1184	46768	33360
1216	52928	29088
1248	31456	20544
1280	31312	20224
1312	30080	1776
1344	54544	26192
1376	37536	16
1408	22640	4912
1440	26736	22368
1472	16032	640
1504	20272	4160
1536	9840	5536
1568	48	48
1600	7248	7248
1632	2416	2400
1664	5936	5936
1696	17616	17568
1728	32704	26432
1760	9536	6528
1792	8880	8880
1824	15344	15344
1856	41296	41280
1888	18640	8848
1920	19760	48
1952	16608	7392
1984	11456	11424
2016	656	656
2048	9088	9088
2112	91008	91008
2176	979072	945184
2240	2327040	2135712
2304	96	96
2368	0	0
2432	64	48
2496	0	0
2560	0	0
2624	16	16
2688	48	48
2752	0	0
2816	80	80
2880	80	80
2944	0	0
3008	0	0
3072	0	0
3136	0	0
3200	0	0
3264	0	0
3328	0	0
3392	0	0
3456	0	0
3520	0	0
3584	0	0
3648	0	0
3712	0	0
3776	0	0
3840	0	0
3904	0	0
3968	32	32
4032	192	192
4096	128	96
4224	0	0
4352	48	48
4480	1136	1136
4608	16	16
4736	0	0
4864	0	0
4992	0	0
5120	0	0
5248	0	0
5376	0	0
5504	0	0
5632	0	0
5760	0	0
5888	0	0
6016	0	0
6144	0	0
6272	0	0
6400	16	16
6528	0	0
6656	16	16
6784	16	16
6912	0	0
7040	16	16
7168	0	0
7296	0	0
7424	0	0
7552	0	0
7680	0	0
7808	0	0
7936	0	0
8064	0	0
8192	0	0
8448	0	0
8704	16	16
8960	2016	2016
9216	0	0
9472	0	0
9728	0	0
9984	0	0
10240	0	0
10496	0	0
10752	0	0
11008	32	32
11264	80	80
11520	0	0
11776	0	0
12032	0	0
12288	0	0
12544	0	0
12800	0	0
13056	0	0
13312	2240	2240
13568	96	96
13824	0	0
14080	0	0
14336	0	0
14592	0	0
14848	0	0
15104	0	0
15360	0	0
15616	288	288
15872	0	0
16128	0	0
16384	0	0
16896	0	0
17408	0	0
17920	800	800
18432	0	0
18944	0	0
19456	0	0
19968	864	864
20480	0	0
20992	0	0
21504	0	0
22016	1840	1840
22528	6112	6112
23040	16	16
23552	16	16
24064	0	0
24576	32	32
25088	0	0
25600	0	0
26112	0	0
26624	0	0
27136	16	16
27648	16	16
28160	16	16
28672	32	32
29184	32	32
29696	0	0
30208	0	0
30720	0	0
31232	16	16
31744	16	0
32256	0	0
32768	0	0
33792	16	16
34816	0	0
35840	112	112
36864	0	0
37888	112	112
38912	0	0
39936	0	0
40960	0	0
41984	0	0
43008	0	0
44032	0	0
45056	16	16
46080	0	0
47104	16	16
48128	0	0
49152	0	0
50176	0	0
51200	0	0
52224	0	0
53248	0	0
54272	0	0
55296	0	0
56320	0	0
57344	0	0
58368	0	0
59392	0	0
60416	288	288
61440	0	0
62464	0	0
63488	0	0
64512	0	0
65536	0	0
67584	0	0
69632	0	0
71680	0	0
73728	0	0
75776	0	0
77824	0	0
79872	0	0
81920	0	0
83968	0	0
86016	0	0
88064	0	0
90112	0	0
92160	0	0
94208	0	0
96256	0	0
98304	0	0
100352	0	0
102400	0	0
104448	0	0
106496	0	0
108544	0	0
110592	0	0
112640	0	0
114688	0	0
116736	0	0
118784	0	0
120832	0	0
122880	0	0
124928	0	0
126976	0	0
129024	0	0
131072	0	0
135168	0	0
139264	0	0
143360	23856	23856
147456	7880464	7880464
151552	587888	587888
155648	62624	62624
159744	560	560
163840	720	720
167936	839488	839488
172032	1625680	1625680
176128	83808	83808
180224	576	576
184320	0	0
188416	0	0
192512	0	0
196608	0	0
200704	0	0
204800	0	0
208896	0	0
212992	0	0
217088	0	0
221184	0	0
225280	0	0
229376	0	0
233472	0	0
237568	0	0
241664	0	0
245760	0	0
249856	0	0
253952	0	0
258048	0	0
262144	0	0
270336	0	0
278528	0	0
286720	0	0
294912	0	0
303104	0	0
311296	0	0
319488	0	0
327680	0	0
335872	0	0
344064	47920	47920
352256	213264	213264
360448	15872	15872
368640	5408	5408
376832	32	32
385024	0	0
393216	16	16
401408	0	0
409600	0	0
417792	0	0
425984	16	16
434176	0	0
442368	0	0
450560	0	0
458752	0	0
466944	0	0
475136	0	0
483328	0	0
491520	0	0
499712	0	0
507904	0	0
516096	0	0
524288	0	0
540672	0	0
557056	0	0
573440	0	0
589824	0	0
606208	0	0
622592	0	0
638976	0	0
655360	0	0
671744	0	0
688128	0	0
704512	0	0
720896	48	48
737280	48	48
753664	0	0
770048	16	16
786432	0	0
802816	0	0
819200	0	0
835584	0	0
851968	0	0
868352	0	0
884736	0	0
901120	0	0
917504	0	0
933888	0	0
950272	0	0
966656	0	0
983040	0	0
999424	0	0
1015808	0	0
1032192	0	0
1048576	0	0
1081344	48	48
1114112	32	32
1146880	0	0
1179648	0	0
1212416	0	0
1245184	0	0
1277952	0	0
1310720	0	0
1343488	0	0
1376256	0	0
1409024	0	0
1441792	0	0
1474560	64	64
1507328	32	32
1540096	32	32
1572864	0	0
1605632	0	0
1638400	0	0
1671168	0	0
1703936	0	0
1736704	0	0
1769472	0	0
1802240	0	0
1835008	32	32
1867776	32	32
1900544	0	0
1933312	0	0
1966080	0	0
1998848	0	0
2031616	0	0
2064384	0	0
2097152	0	0
2162688	16	16
2228224	144	144
2293760	0	0
2359296	0	0
2424832	0	0
2490368	0	0
2555904	16	16
2621440	0	0
2686976	0	0
2752512	0	0
2818048	0	0
2883584	0	0
2949120	32	32
3014656	0	0
3080192	0	0
3145728	0	0
3211264	0	0
3276800	0	0
3342336	64	64
3407872	0	0
3473408	0	0
3538944	0	0
3604480	0	0
3670016	0	0
3735552	208	208
3801088	0	0
3866624	0	0
3932160	0	0
3997696	0	0
4063232	16	16
4128768	0	0
4194304	0	0
4325376	0	0
4456448	0	0
4587520	0	0
4718592	0	0
4849664	0	0
4980736	0	0
5111808	0	0
5242880	0	0
5373952	0	0
5505024	0	0
5636096	0	0
5767168	0	0
5898240	0	0
6029312	0	0
6160384	0	0
6291456	0	0
6422528	0	0
6553600	0	0
6684672	0	0
6815744	0	0
6946816	0	0
7077888	0	0
7208960	0	0
7340032	0	0
7471104	0	0
7602176	0	0
7733248	0	0
7864320	0	0
7995392	0	0
8126464	0	0
8257536	0	0
8388608	0	0
8650752	0	0
8912896	0	0
9175040	0	0
9437184	0	0
9699328	0	0
9961472	0	0
10223616	0	0
10485760	0	0
10747904	0	0
11010048	0	0
11272192	0	0
11534336	0	0
11796480	0	0
12058624	0	0
12320768	0	0
12582912	0	0
12845056	0	0
13107200	0	0
13369344	0	0
13631488	0	0
13893632	0	0
14155776	0	0
14417920	0	0
14680064	0	0
14942208	0	0
15204352	0	0
15466496	0	0
15728640	0	0
15990784	0	0
16252928	0	0
16515072	0	0
16777216	0	0
17301504	0	0
17825792	0	0
18350080	0	0
18874368	0	0
19398656	0	0
19922944	0	0
20447232	0	0
20971520	0	0
21495808	0	0
22020096	0	0
22544384	0	0
23068672	0	0
23592960	0	0
24117248	0	0
24641536	0	0
25165824	2644960	2644960
25690112	5451312	5451312
26214400	74080	74080
26738688	75056	75056
27262976	73984	73984
27787264	74368	74368
28311552	70160	70160
28835840	75120	75120
29360128	723840	723840
29884416	1360032	1360032
30408704	0	0
30932992	0	0
31457280	0	0
31981568	0	0
32505856	0	0
33030144	0	0
33554432	0	0
34603008	0	0
35651584	0	0
36700160	0	0
37748736	0	0
38797312	0	0
39845888	0	0
40894464	0	0
41943040	0	0
42991616	0	0
44040192	0	0
45088768	0	0
46137344	0	0
47185920	0	0
48234496	0	0
49283072	0	0
50331648	0	0
51380224	0	0
52428800	0	0
53477376	0	0
54525952	0	0
55574528	0	0
56623104	0	0
57671680	0	0
58720256	0	0
59768832	0	0
60817408	0	0
61865984	0	0
62914560	0	0
63963136	0	0
65011712	0	0
66060288	0	0
67108864	0	0
69206016	0	0
71303168	0	0
73400320	0	0
75497472	0	0
77594624	0	0
79691776	0	0
81788928	0	0
83886080	0	0
85983232	0	0
88080384	0	0
90177536	0	0
92274688	0	0
94371840	0	0
96468992	0	0
98566144	0	0
100663296	0	0
102760448	0	0
104857600	0	0
106954752	0	0
109051904	0	0
111149056	0	0
113246208	0	0
115343360	0	0
117440512	0	0
119537664	0	0
121634816	0	0
123731968	0	0
125829120	0	0
127926272	0	0
130023424	0	0
132120576	0	0
134217728	0	0
138412032	0	0
142606336	0	0
146800640	0	0
150994944	0	0
155189248	0	0
159383552	0	0
163577856	0	0
167772160	0	0
171966464	0	0
176160768	0	0
180355072	0	0
184549376	0	0
188743680	0	0
192937984	0	0
197132288	0	0
201326592	0	0
205520896	0	0
209715200	0	0
213909504	0	0
218103808	0	0
222298112	0	0
226492416	0	0
230686720	0	0
234881024	0	0
239075328	0	0
243269632	0	0
247463936	0	0
251658240	0	0
255852544	0	0
260046848	0	0
264241152	0	0
268435456	0	0
276824064	0	0
285212672	0	0
293601280	0	0
301989888	0	0
310378496	0	0
318767104	0	0
327155712	0	0
335544320	0	0
343932928	0	0
352321536	0	0
360710144	0	0
369098752	0	0
377487360	0	0
385875968	0	0
394264576	0	0
402653184	0	0
411041792	0	0
419430400	0	0
427819008	0	0
436207616	0	0
444596224	0	0
452984832	0	0
461373440	0	0
469762048	0	0
478150656	0	0
486539264	0	0
494927872	0	0
503316480	0	0
511705088	0	0
520093696	0	0
528482304	0	0
536870912	0	0
553648128	0	0
570425344	0	0
587202560	0	0
603979776	0	0
620756992	0	0
637534208	0	0
654311424	0	0
671088640	0	0
687865856	0	0
704643072	0	0
721420288	0	0
738197504	0	0
754974720	0	0
771751936	0	0
788529152	0	0
805306368	0	0
822083584	0	0
838860800	0	0
855638016	0	0
872415232	0	0
889192448	0	0
905969664	0	0
922746880	0	0
939524096	0	0
956301312	0	0
973078528	0	0
989855744	0	0
1006632960	0	0
1023410176	0	0
1040187392	0	0
1056964608	0	0
1073741824	0	0
1107296256	0	0
1140850688	0	0
1174405120	0	0
1207959552	0	0
1241513984	0	0
1275068416	0	0
1308622848	0	0
1342177280	0	0
1375731712	0	0
1409286144	0	0
1442840576	0	0
1476395008	0	0
1509949440	0	0
1543503872	0	0
1577058304	0	0
1610612736	0	0
1644167168	0	0
1677721600	0	0
1711276032	0	0
1744830464	0	0
1778384896	0	0
1811939328	0	0
1845493760	0	0
1879048192	0	0
1912602624	0	0
1946157056	0	0
1979711488	0	0
2013265920	0	0
2046820352	0	0
2080374784	0	0
2113929216	0	0
2147483648	0	0
2214592512	0	0
2281701376	0	0
2348810240	0	0
2415919104	0	0
2483027968	0	0
2550136832	0	0
2617245696	0	0
2684354560	0	0
2751463424	0	0
2818572288	0	0
2885681152	0	0
2952790016	0	0
3019898880	0	0
3087007744	0	0
3154116608	0	0
3221225472	0	0
3288334336	0	0
3355443200	0	0
3422552064	0	0
3489660928	0	0
3556769792	0	0
3623878656	0	0
3690987520	0	0
3758096384	0	0
3825205248	0	0
3892314112	0	0
3959422976	0	0
4026531840	0	0
4093640704	0	0
4160749568	0	0
4227858432	0	0
~~~~~~~~~~Reuse Distance Profiler output end~~~~~~~~~~

DRAM Statistics
 CHANNEL 0
 RQ ROW_BUFFER_HIT:        238  ROW_BUFFER_MISS:   11534314
 DBUS AVG_CONGESTED_CYCLE:    3.99986
 WQ ROW_BUFFER_HIT:       2778  ROW_BUFFER_MISS:    1432308  FULL:          0


CPU 0 Branch Prediction Accuracy: 99.6983% MPKI: 0.00357733 Average ROB Occupancy at Mispredict: 345.776
Branch type MPKI
BRANCH_DIRECT_JUMP: 0
BRANCH_INDIRECT: 0
BRANCH_CONDITIONAL: 0.00357733
BRANCH_DIRECT_CALL: 0
BRANCH_INDIRECT_CALL: 0
BRANCH_RETURN: 0

