
*** ChampSim Multicore Out-of-Order Simulator ***

Warmup Instructions: 500000000
Simulation Instructions: 1500000000
Number of CPUs: 1
Off-chip DRAM Size: 4 GiB Channels: 1 Width: 64-bit Data Rate: 3200 MT/s

VirtualMemory physical capacity: 8588881920 num_ppages: 2096895
VirtualMemory page size: 4096 log2_page_size: 12

CPU 0 runs traces/607.cactuBSSN_s-4004B.champsimtrace.xz
CPU 0 Bimodal branch predictor
Basic BTB sets: 1024 ways: 8 indirect buffer size: 4096 RAS size: 64
Initializing LRU.
Initializing LRU.
Initializing LRU.
Initializing LRU.
Initializing rdLRU.
Initializing LRU.
Initializing LRU.
Heartbeat CPU 0 instructions: 10000001 cycles: 3728593 heartbeat IPC: 2.68198 cumulative IPC: 2.68198 (Simulation time: 0 hr 1 min 12 sec) 
Heartbeat CPU 0 instructions: 20000003 cycles: 7456542 heartbeat IPC: 2.68244 cumulative IPC: 2.68221 (Simulation time: 0 hr 2 min 15 sec) 
Heartbeat CPU 0 instructions: 30000001 cycles: 11184796 heartbeat IPC: 2.68222 cumulative IPC: 2.68221 (Simulation time: 0 hr 3 min 19 sec) 
Heartbeat CPU 0 instructions: 40000001 cycles: 14912673 heartbeat IPC: 2.68249 cumulative IPC: 2.68228 (Simulation time: 0 hr 4 min 23 sec) 
Heartbeat CPU 0 instructions: 50000004 cycles: 18640964 heartbeat IPC: 2.68219 cumulative IPC: 2.68227 (Simulation time: 0 hr 5 min 26 sec) 
Heartbeat CPU 0 instructions: 60000001 cycles: 22368735 heartbeat IPC: 2.68257 cumulative IPC: 2.68232 (Simulation time: 0 hr 6 min 51 sec) 
Heartbeat CPU 0 instructions: 70000004 cycles: 26096944 heartbeat IPC: 2.68225 cumulative IPC: 2.68231 (Simulation time: 0 hr 8 min 23 sec) 
Heartbeat CPU 0 instructions: 80000002 cycles: 29824987 heartbeat IPC: 2.68237 cumulative IPC: 2.68231 (Simulation time: 0 hr 10 min 2 sec) 
Heartbeat CPU 0 instructions: 90000000 cycles: 33553426 heartbeat IPC: 2.68209 cumulative IPC: 2.68229 (Simulation time: 0 hr 11 min 28 sec) 
Heartbeat CPU 0 instructions: 100000004 cycles: 37281142 heartbeat IPC: 2.68261 cumulative IPC: 2.68232 (Simulation time: 0 hr 12 min 44 sec) 
Heartbeat CPU 0 instructions: 110000002 cycles: 41009415 heartbeat IPC: 2.68221 cumulative IPC: 2.68231 (Simulation time: 0 hr 14 min 15 sec) 
Heartbeat CPU 0 instructions: 120000003 cycles: 44737333 heartbeat IPC: 2.68246 cumulative IPC: 2.68232 (Simulation time: 0 hr 15 min 21 sec) 
Heartbeat CPU 0 instructions: 130000004 cycles: 48465681 heartbeat IPC: 2.68215 cumulative IPC: 2.68231 (Simulation time: 0 hr 16 min 43 sec) 
Heartbeat CPU 0 instructions: 140000000 cycles: 52193433 heartbeat IPC: 2.68258 cumulative IPC: 2.68233 (Simulation time: 0 hr 17 min 50 sec) 
Heartbeat CPU 0 instructions: 150000000 cycles: 55921865 heartbeat IPC: 2.68209 cumulative IPC: 2.68231 (Simulation time: 0 hr 18 min 57 sec) 
Heartbeat CPU 0 instructions: 160000000 cycles: 59649697 heartbeat IPC: 2.68252 cumulative IPC: 2.68233 (Simulation time: 0 hr 20 min 6 sec) 
Heartbeat CPU 0 instructions: 170000002 cycles: 63378111 heartbeat IPC: 2.68211 cumulative IPC: 2.68231 (Simulation time: 0 hr 21 min 43 sec) 
Heartbeat CPU 0 instructions: 180000001 cycles: 67105686 heartbeat IPC: 2.68271 cumulative IPC: 2.68234 (Simulation time: 0 hr 23 min 3 sec) 
Heartbeat CPU 0 instructions: 190000004 cycles: 70834064 heartbeat IPC: 2.68213 cumulative IPC: 2.68233 (Simulation time: 0 hr 24 min 24 sec) 
Heartbeat CPU 0 instructions: 200000004 cycles: 74561881 heartbeat IPC: 2.68254 cumulative IPC: 2.68234 (Simulation time: 0 hr 25 min 29 sec) 
Heartbeat CPU 0 instructions: 210000001 cycles: 78290313 heartbeat IPC: 2.68209 cumulative IPC: 2.68232 (Simulation time: 0 hr 27 min 15 sec) 
Heartbeat CPU 0 instructions: 220000004 cycles: 82018045 heartbeat IPC: 2.6826 cumulative IPC: 2.68234 (Simulation time: 0 hr 28 min 55 sec) 
Heartbeat CPU 0 instructions: 230000001 cycles: 85746421 heartbeat IPC: 2.68213 cumulative IPC: 2.68233 (Simulation time: 0 hr 30 min 50 sec) 
Heartbeat CPU 0 instructions: 240000001 cycles: 89474387 heartbeat IPC: 2.68243 cumulative IPC: 2.68233 (Simulation time: 0 hr 32 min 34 sec) 
Heartbeat CPU 0 instructions: 250000003 cycles: 93202659 heartbeat IPC: 2.68221 cumulative IPC: 2.68233 (Simulation time: 0 hr 34 min 5 sec) 
Heartbeat CPU 0 instructions: 260000003 cycles: 96930462 heartbeat IPC: 2.68255 cumulative IPC: 2.68234 (Simulation time: 0 hr 35 min 52 sec) 
Heartbeat CPU 0 instructions: 270000004 cycles: 100658875 heartbeat IPC: 2.68211 cumulative IPC: 2.68233 (Simulation time: 0 hr 37 min 38 sec) 
Heartbeat CPU 0 instructions: 280000000 cycles: 104386758 heartbeat IPC: 2.68249 cumulative IPC: 2.68233 (Simulation time: 0 hr 38 min 48 sec) 
Heartbeat CPU 0 instructions: 290000001 cycles: 108114948 heartbeat IPC: 2.68227 cumulative IPC: 2.68233 (Simulation time: 0 hr 40 min 7 sec) 
Heartbeat CPU 0 instructions: 300000002 cycles: 111842824 heartbeat IPC: 2.68249 cumulative IPC: 2.68234 (Simulation time: 0 hr 41 min 35 sec) 
Heartbeat CPU 0 instructions: 310000003 cycles: 115571105 heartbeat IPC: 2.6822 cumulative IPC: 2.68233 (Simulation time: 0 hr 43 min 12 sec) 
Heartbeat CPU 0 instructions: 320000004 cycles: 119298998 heartbeat IPC: 2.68248 cumulative IPC: 2.68234 (Simulation time: 0 hr 44 min 19 sec) 
Heartbeat CPU 0 instructions: 330000001 cycles: 123027092 heartbeat IPC: 2.68233 cumulative IPC: 2.68234 (Simulation time: 0 hr 45 min 25 sec) 
Heartbeat CPU 0 instructions: 340000001 cycles: 126755113 heartbeat IPC: 2.68239 cumulative IPC: 2.68234 (Simulation time: 0 hr 46 min 32 sec) 
Heartbeat CPU 0 instructions: 350000004 cycles: 130483325 heartbeat IPC: 2.68225 cumulative IPC: 2.68234 (Simulation time: 0 hr 47 min 38 sec) 
Heartbeat CPU 0 instructions: 360000003 cycles: 134211343 heartbeat IPC: 2.68239 cumulative IPC: 2.68234 (Simulation time: 0 hr 48 min 54 sec) 
Heartbeat CPU 0 instructions: 370000002 cycles: 137939383 heartbeat IPC: 2.68237 cumulative IPC: 2.68234 (Simulation time: 0 hr 50 min 34 sec) 
Heartbeat CPU 0 instructions: 380000001 cycles: 141667624 heartbeat IPC: 2.68223 cumulative IPC: 2.68233 (Simulation time: 0 hr 52 min 22 sec) 
Heartbeat CPU 0 instructions: 390000002 cycles: 145395771 heartbeat IPC: 2.6823 cumulative IPC: 2.68233 (Simulation time: 0 hr 54 min 17 sec) 
Heartbeat CPU 0 instructions: 400000000 cycles: 149123809 heartbeat IPC: 2.68238 cumulative IPC: 2.68233 (Simulation time: 0 hr 56 min 5 sec) 
Heartbeat CPU 0 instructions: 410000001 cycles: 152851663 heartbeat IPC: 2.68251 cumulative IPC: 2.68234 (Simulation time: 0 hr 57 min 8 sec) 
Heartbeat CPU 0 instructions: 420000003 cycles: 156579940 heartbeat IPC: 2.6822 cumulative IPC: 2.68234 (Simulation time: 0 hr 58 min 12 sec) 
Heartbeat CPU 0 instructions: 430000000 cycles: 160307823 heartbeat IPC: 2.68249 cumulative IPC: 2.68234 (Simulation time: 0 hr 59 min 52 sec) 
Heartbeat CPU 0 instructions: 440000000 cycles: 164035913 heartbeat IPC: 2.68234 cumulative IPC: 2.68234 (Simulation time: 1 hr 1 min 45 sec) 
Heartbeat CPU 0 instructions: 450000001 cycles: 167763833 heartbeat IPC: 2.68246 cumulative IPC: 2.68234 (Simulation time: 1 hr 3 min 29 sec) 
Heartbeat CPU 0 instructions: 460000002 cycles: 171492218 heartbeat IPC: 2.68213 cumulative IPC: 2.68234 (Simulation time: 1 hr 4 min 55 sec) 
Heartbeat CPU 0 instructions: 470000001 cycles: 175219984 heartbeat IPC: 2.68257 cumulative IPC: 2.68234 (Simulation time: 1 hr 6 min 40 sec) 
Heartbeat CPU 0 instructions: 480000002 cycles: 178948064 heartbeat IPC: 2.68235 cumulative IPC: 2.68234 (Simulation time: 1 hr 8 min 27 sec) 
Heartbeat CPU 0 instructions: 490000004 cycles: 182675883 heartbeat IPC: 2.68253 cumulative IPC: 2.68235 (Simulation time: 1 hr 10 min 8 sec) 
Heartbeat CPU 0 instructions: 500000004 cycles: 186404162 heartbeat IPC: 2.6822 cumulative IPC: 2.68234 (Simulation time: 1 hr 11 min 26 sec) 

Warmup complete CPU 0 instructions: 500000004 cycles: 186404162 (Simulation time: 1 hr 11 min 26 sec) 

Heartbeat CPU 0 instructions: 510000000 cycles: 192753018 heartbeat IPC: 1.57509 cumulative IPC: 1.57509 (Simulation time: 1 hr 13 min 43 sec) 
Heartbeat CPU 0 instructions: 520000001 cycles: 199102944 heartbeat IPC: 1.57482 cumulative IPC: 1.57495 (Simulation time: 1 hr 15 min 59 sec) 
Heartbeat CPU 0 instructions: 530000004 cycles: 205439093 heartbeat IPC: 1.57825 cumulative IPC: 1.57605 (Simulation time: 1 hr 18 min 9 sec) 
Heartbeat CPU 0 instructions: 540000001 cycles: 212021686 heartbeat IPC: 1.51916 cumulative IPC: 1.56143 (Simulation time: 1 hr 19 min 45 sec) 
Heartbeat CPU 0 instructions: 550000000 cycles: 218368514 heartbeat IPC: 1.57559 cumulative IPC: 1.56424 (Simulation time: 1 hr 21 min 50 sec) 
Heartbeat CPU 0 instructions: 560000000 cycles: 224713868 heartbeat IPC: 1.57596 cumulative IPC: 1.56618 (Simulation time: 1 hr 23 min 8 sec) 
Heartbeat CPU 0 instructions: 570000001 cycles: 231028083 heartbeat IPC: 1.58373 cumulative IPC: 1.56867 (Simulation time: 1 hr 24 min 43 sec) 
Heartbeat CPU 0 instructions: 580000004 cycles: 237366272 heartbeat IPC: 1.57774 cumulative IPC: 1.56979 (Simulation time: 1 hr 26 min 5 sec) 
Heartbeat CPU 0 instructions: 590000004 cycles: 243701316 heartbeat IPC: 1.57852 cumulative IPC: 1.57076 (Simulation time: 1 hr 27 min 50 sec) 
Heartbeat CPU 0 instructions: 600000004 cycles: 250081636 heartbeat IPC: 1.56732 cumulative IPC: 1.57041 (Simulation time: 1 hr 29 min 5 sec) 
Heartbeat CPU 0 instructions: 610000001 cycles: 256424891 heartbeat IPC: 1.57648 cumulative IPC: 1.57096 (Simulation time: 1 hr 30 min 21 sec) 
Heartbeat CPU 0 instructions: 620000003 cycles: 262766705 heartbeat IPC: 1.57684 cumulative IPC: 1.57145 (Simulation time: 1 hr 31 min 37 sec) 
Heartbeat CPU 0 instructions: 630000003 cycles: 269111182 heartbeat IPC: 1.57617 cumulative IPC: 1.57181 (Simulation time: 1 hr 33 min 22 sec) 
Heartbeat CPU 0 instructions: 640000004 cycles: 275439633 heartbeat IPC: 1.58017 cumulative IPC: 1.57241 (Simulation time: 1 hr 35 min 7 sec) 
Heartbeat CPU 0 instructions: 650000000 cycles: 281778490 heartbeat IPC: 1.57757 cumulative IPC: 1.57275 (Simulation time: 1 hr 36 min 24 sec) 
Heartbeat CPU 0 instructions: 660000004 cycles: 288129757 heartbeat IPC: 1.57449 cumulative IPC: 1.57286 (Simulation time: 1 hr 38 min 4 sec) 
Heartbeat CPU 0 instructions: 670000002 cycles: 294473032 heartbeat IPC: 1.57647 cumulative IPC: 1.57307 (Simulation time: 1 hr 39 min 39 sec) 
Heartbeat CPU 0 instructions: 680000001 cycles: 300808937 heartbeat IPC: 1.57831 cumulative IPC: 1.57336 (Simulation time: 1 hr 41 min 24 sec) 
Heartbeat CPU 0 instructions: 690000002 cycles: 307381761 heartbeat IPC: 1.52142 cumulative IPC: 1.57054 (Simulation time: 1 hr 42 min 57 sec) 
Heartbeat CPU 0 instructions: 700000002 cycles: 313753737 heartbeat IPC: 1.56937 cumulative IPC: 1.57048 (Simulation time: 1 hr 44 min 45 sec) 
Heartbeat CPU 0 instructions: 710000000 cycles: 320099589 heartbeat IPC: 1.57583 cumulative IPC: 1.57073 (Simulation time: 1 hr 46 min 50 sec) 
Heartbeat CPU 0 instructions: 720000000 cycles: 326432586 heartbeat IPC: 1.57903 cumulative IPC: 1.57111 (Simulation time: 1 hr 48 min 38 sec) 
Heartbeat CPU 0 instructions: 730000002 cycles: 332768065 heartbeat IPC: 1.57841 cumulative IPC: 1.57143 (Simulation time: 1 hr 50 min 11 sec) 
Heartbeat CPU 0 instructions: 740000000 cycles: 339120984 heartbeat IPC: 1.57408 cumulative IPC: 1.57154 (Simulation time: 1 hr 52 min 22 sec) 
Heartbeat CPU 0 instructions: 750000001 cycles: 345453586 heartbeat IPC: 1.57913 cumulative IPC: 1.57184 (Simulation time: 1 hr 54 min 21 sec) 
Heartbeat CPU 0 instructions: 760000002 cycles: 351825134 heartbeat IPC: 1.56948 cumulative IPC: 1.57175 (Simulation time: 1 hr 56 min 36 sec) 
Heartbeat CPU 0 instructions: 770000004 cycles: 358160487 heartbeat IPC: 1.57844 cumulative IPC: 1.57199 (Simulation time: 1 hr 58 min 53 sec) 
Heartbeat CPU 0 instructions: 780000004 cycles: 364522672 heartbeat IPC: 1.57179 cumulative IPC: 1.57199 (Simulation time: 2 hr 1 min 1 sec) 
Heartbeat CPU 0 instructions: 790000002 cycles: 370865721 heartbeat IPC: 1.57653 cumulative IPC: 1.57214 (Simulation time: 2 hr 2 min 24 sec) 
Heartbeat CPU 0 instructions: 800000000 cycles: 377209597 heartbeat IPC: 1.57632 cumulative IPC: 1.57228 (Simulation time: 2 hr 3 min 44 sec) 
Heartbeat CPU 0 instructions: 810000001 cycles: 383567100 heartbeat IPC: 1.57294 cumulative IPC: 1.5723 (Simulation time: 2 hr 5 min 5 sec) 
Heartbeat CPU 0 instructions: 820000001 cycles: 389902545 heartbeat IPC: 1.57842 cumulative IPC: 1.57249 (Simulation time: 2 hr 6 min 35 sec) 
Heartbeat CPU 0 instructions: 830000001 cycles: 396233773 heartbeat IPC: 1.57947 cumulative IPC: 1.5727 (Simulation time: 2 hr 8 min 15 sec) 
Heartbeat CPU 0 instructions: 840000001 cycles: 402811925 heartbeat IPC: 1.52018 cumulative IPC: 1.57111 (Simulation time: 2 hr 9 min 33 sec) 
Heartbeat CPU 0 instructions: 850000003 cycles: 409157104 heartbeat IPC: 1.576 cumulative IPC: 1.57125 (Simulation time: 2 hr 11 min 0 sec) 
Heartbeat CPU 0 instructions: 860000003 cycles: 415498808 heartbeat IPC: 1.57686 cumulative IPC: 1.5714 (Simulation time: 2 hr 13 min 17 sec) 
Heartbeat CPU 0 instructions: 870000003 cycles: 421826690 heartbeat IPC: 1.58031 cumulative IPC: 1.57164 (Simulation time: 2 hr 15 min 24 sec) 
Heartbeat CPU 0 instructions: 880000001 cycles: 428175268 heartbeat IPC: 1.57516 cumulative IPC: 1.57173 (Simulation time: 2 hr 17 min 13 sec) 
Heartbeat CPU 0 instructions: 890000000 cycles: 434509504 heartbeat IPC: 1.57872 cumulative IPC: 1.57191 (Simulation time: 2 hr 18 min 35 sec) 
Heartbeat CPU 0 instructions: 900000002 cycles: 440847158 heartbeat IPC: 1.57787 cumulative IPC: 1.57206 (Simulation time: 2 hr 19 min 52 sec) 
Heartbeat CPU 0 instructions: 910000002 cycles: 447181893 heartbeat IPC: 1.5786 cumulative IPC: 1.57222 (Simulation time: 2 hr 21 min 8 sec) 
Heartbeat CPU 0 instructions: 920000004 cycles: 453526011 heartbeat IPC: 1.57626 cumulative IPC: 1.57232 (Simulation time: 2 hr 22 min 25 sec) 
Heartbeat CPU 0 instructions: 930000000 cycles: 459871506 heartbeat IPC: 1.57592 cumulative IPC: 1.5724 (Simulation time: 2 hr 23 min 43 sec) 
Heartbeat CPU 0 instructions: 940000001 cycles: 466212508 heartbeat IPC: 1.57704 cumulative IPC: 1.5725 (Simulation time: 2 hr 25 min 0 sec) 
Heartbeat CPU 0 instructions: 950000002 cycles: 472552856 heartbeat IPC: 1.5772 cumulative IPC: 1.57261 (Simulation time: 2 hr 26 min 20 sec) 
Heartbeat CPU 0 instructions: 960000002 cycles: 478886263 heartbeat IPC: 1.57893 cumulative IPC: 1.57275 (Simulation time: 2 hr 27 min 38 sec) 
Heartbeat CPU 0 instructions: 970000004 cycles: 485232603 heartbeat IPC: 1.57571 cumulative IPC: 1.57281 (Simulation time: 2 hr 28 min 55 sec) 
Heartbeat CPU 0 instructions: 980000002 cycles: 491566833 heartbeat IPC: 1.57872 cumulative IPC: 1.57293 (Simulation time: 2 hr 30 min 11 sec) 
Heartbeat CPU 0 instructions: 990000003 cycles: 498148934 heartbeat IPC: 1.51927 cumulative IPC: 1.5718 (Simulation time: 2 hr 31 min 32 sec) 
Heartbeat CPU 0 instructions: 1000000002 cycles: 504494132 heartbeat IPC: 1.57599 cumulative IPC: 1.57188 (Simulation time: 2 hr 32 min 51 sec) 
Heartbeat CPU 0 instructions: 1010000000 cycles: 510842270 heartbeat IPC: 1.57526 cumulative IPC: 1.57195 (Simulation time: 2 hr 34 min 9 sec) 
Heartbeat CPU 0 instructions: 1020000000 cycles: 517170476 heartbeat IPC: 1.58023 cumulative IPC: 1.57211 (Simulation time: 2 hr 35 min 28 sec) 
Heartbeat CPU 0 instructions: 1030000004 cycles: 523503256 heartbeat IPC: 1.57909 cumulative IPC: 1.57224 (Simulation time: 2 hr 36 min 55 sec) 
Heartbeat CPU 0 instructions: 1040000000 cycles: 529841727 heartbeat IPC: 1.57767 cumulative IPC: 1.57234 (Simulation time: 2 hr 38 min 24 sec) 
Heartbeat CPU 0 instructions: 1050000002 cycles: 536185959 heartbeat IPC: 1.57624 cumulative IPC: 1.57241 (Simulation time: 2 hr 39 min 39 sec) 
Heartbeat CPU 0 instructions: 1060000002 cycles: 542547250 heartbeat IPC: 1.57201 cumulative IPC: 1.5724 (Simulation time: 2 hr 40 min 56 sec) 
Heartbeat CPU 0 instructions: 1070000004 cycles: 548882081 heartbeat IPC: 1.57857 cumulative IPC: 1.57251 (Simulation time: 2 hr 42 min 12 sec) 
Heartbeat CPU 0 instructions: 1080000004 cycles: 555226326 heartbeat IPC: 1.57623 cumulative IPC: 1.57257 (Simulation time: 2 hr 43 min 28 sec) 
Heartbeat CPU 0 instructions: 1090000001 cycles: 561566720 heartbeat IPC: 1.57719 cumulative IPC: 1.57265 (Simulation time: 2 hr 44 min 45 sec) 
Heartbeat CPU 0 instructions: 1100000003 cycles: 567913433 heartbeat IPC: 1.57562 cumulative IPC: 1.5727 (Simulation time: 2 hr 46 min 1 sec) 
Heartbeat CPU 0 instructions: 1110000003 cycles: 574281295 heartbeat IPC: 1.57039 cumulative IPC: 1.57266 (Simulation time: 2 hr 47 min 20 sec) 
Heartbeat CPU 0 instructions: 1120000000 cycles: 580617184 heartbeat IPC: 1.57831 cumulative IPC: 1.57275 (Simulation time: 2 hr 48 min 39 sec) 
Heartbeat CPU 0 instructions: 1130000000 cycles: 586960385 heartbeat IPC: 1.57649 cumulative IPC: 1.57281 (Simulation time: 2 hr 49 min 56 sec) 
Heartbeat CPU 0 instructions: 1140000001 cycles: 593299055 heartbeat IPC: 1.57762 cumulative IPC: 1.57289 (Simulation time: 2 hr 51 min 12 sec) 
Heartbeat CPU 0 instructions: 1150000004 cycles: 599876191 heartbeat IPC: 1.52042 cumulative IPC: 1.57205 (Simulation time: 2 hr 52 min 28 sec) 
Heartbeat CPU 0 instructions: 1160000004 cycles: 606219597 heartbeat IPC: 1.57644 cumulative IPC: 1.57212 (Simulation time: 2 hr 53 min 50 sec) 
Heartbeat CPU 0 instructions: 1170000000 cycles: 612557809 heartbeat IPC: 1.57773 cumulative IPC: 1.5722 (Simulation time: 2 hr 55 min 4 sec) 
Heartbeat CPU 0 instructions: 1180000001 cycles: 618891892 heartbeat IPC: 1.57876 cumulative IPC: 1.5723 (Simulation time: 2 hr 56 min 18 sec) 
Heartbeat CPU 0 instructions: 1190000002 cycles: 625238531 heartbeat IPC: 1.57564 cumulative IPC: 1.57235 (Simulation time: 2 hr 57 min 33 sec) 
Heartbeat CPU 0 instructions: 1200000003 cycles: 631578608 heartbeat IPC: 1.57727 cumulative IPC: 1.57242 (Simulation time: 2 hr 58 min 48 sec) 
Heartbeat CPU 0 instructions: 1210000000 cycles: 637911713 heartbeat IPC: 1.579 cumulative IPC: 1.57251 (Simulation time: 3 hr 0 min 3 sec) 
Heartbeat CPU 0 instructions: 1220000000 cycles: 644259019 heartbeat IPC: 1.57547 cumulative IPC: 1.57255 (Simulation time: 3 hr 1 min 18 sec) 
Heartbeat CPU 0 instructions: 1230000004 cycles: 650592057 heartbeat IPC: 1.57902 cumulative IPC: 1.57264 (Simulation time: 3 hr 2 min 42 sec) 
Heartbeat CPU 0 instructions: 1240000002 cycles: 656924284 heartbeat IPC: 1.57922 cumulative IPC: 1.57273 (Simulation time: 3 hr 3 min 58 sec) 
Heartbeat CPU 0 instructions: 1250000003 cycles: 663253924 heartbeat IPC: 1.57987 cumulative IPC: 1.57282 (Simulation time: 3 hr 5 min 22 sec) 
Heartbeat CPU 0 instructions: 1260000004 cycles: 669587388 heartbeat IPC: 1.57891 cumulative IPC: 1.5729 (Simulation time: 3 hr 6 min 45 sec) 
Heartbeat CPU 0 instructions: 1270000000 cycles: 675923492 heartbeat IPC: 1.57826 cumulative IPC: 1.57297 (Simulation time: 3 hr 8 min 4 sec) 
Heartbeat CPU 0 instructions: 1280000001 cycles: 682265749 heartbeat IPC: 1.57673 cumulative IPC: 1.57302 (Simulation time: 3 hr 9 min 27 sec) 
Heartbeat CPU 0 instructions: 1290000002 cycles: 688610653 heartbeat IPC: 1.57607 cumulative IPC: 1.57306 (Simulation time: 3 hr 10 min 46 sec) 
Heartbeat CPU 0 instructions: 1300000002 cycles: 695174439 heartbeat IPC: 1.52351 cumulative IPC: 1.57242 (Simulation time: 3 hr 12 min 5 sec) 
Heartbeat CPU 0 instructions: 1310000004 cycles: 701520643 heartbeat IPC: 1.57575 cumulative IPC: 1.57246 (Simulation time: 3 hr 13 min 22 sec) 
Heartbeat CPU 0 instructions: 1320000002 cycles: 707850200 heartbeat IPC: 1.57989 cumulative IPC: 1.57255 (Simulation time: 3 hr 14 min 40 sec) 
Heartbeat CPU 0 instructions: 1330000003 cycles: 714189690 heartbeat IPC: 1.57741 cumulative IPC: 1.57261 (Simulation time: 3 hr 15 min 58 sec) 
Heartbeat CPU 0 instructions: 1340000003 cycles: 720529266 heartbeat IPC: 1.57739 cumulative IPC: 1.57267 (Simulation time: 3 hr 17 min 19 sec) 
Heartbeat CPU 0 instructions: 1350000004 cycles: 726875280 heartbeat IPC: 1.57579 cumulative IPC: 1.5727 (Simulation time: 3 hr 18 min 38 sec) 
Heartbeat CPU 0 instructions: 1360000002 cycles: 733210751 heartbeat IPC: 1.57841 cumulative IPC: 1.57277 (Simulation time: 3 hr 19 min 58 sec) 
Heartbeat CPU 0 instructions: 1370000001 cycles: 739541698 heartbeat IPC: 1.57954 cumulative IPC: 1.57285 (Simulation time: 3 hr 21 min 16 sec) 
Heartbeat CPU 0 instructions: 1380000001 cycles: 745879375 heartbeat IPC: 1.57787 cumulative IPC: 1.5729 (Simulation time: 3 hr 22 min 35 sec) 
Heartbeat CPU 0 instructions: 1390000001 cycles: 752216851 heartbeat IPC: 1.57792 cumulative IPC: 1.57296 (Simulation time: 3 hr 23 min 53 sec) 
Heartbeat CPU 0 instructions: 1400000003 cycles: 758564242 heartbeat IPC: 1.57545 cumulative IPC: 1.57299 (Simulation time: 3 hr 25 min 11 sec) 
Heartbeat CPU 0 instructions: 1410000003 cycles: 764891166 heartbeat IPC: 1.58055 cumulative IPC: 1.57307 (Simulation time: 3 hr 26 min 27 sec) 
Heartbeat CPU 0 instructions: 1420000001 cycles: 771229083 heartbeat IPC: 1.57781 cumulative IPC: 1.57312 (Simulation time: 3 hr 27 min 44 sec) 
Heartbeat CPU 0 instructions: 1430000000 cycles: 777562468 heartbeat IPC: 1.57893 cumulative IPC: 1.57318 (Simulation time: 3 hr 29 min 1 sec) 
Heartbeat CPU 0 instructions: 1440000002 cycles: 783907082 heartbeat IPC: 1.57614 cumulative IPC: 1.57321 (Simulation time: 3 hr 30 min 17 sec) 
Heartbeat CPU 0 instructions: 1450000002 cycles: 790482244 heartbeat IPC: 1.52088 cumulative IPC: 1.57264 (Simulation time: 3 hr 31 min 35 sec) 
Heartbeat CPU 0 instructions: 1460000002 cycles: 796820864 heartbeat IPC: 1.57763 cumulative IPC: 1.5727 (Simulation time: 3 hr 32 min 51 sec) 
Heartbeat CPU 0 instructions: 1470000003 cycles: 803166127 heartbeat IPC: 1.57598 cumulative IPC: 1.57273 (Simulation time: 3 hr 34 min 5 sec) 
Heartbeat CPU 0 instructions: 1480000004 cycles: 809502907 heartbeat IPC: 1.57809 cumulative IPC: 1.57278 (Simulation time: 3 hr 35 min 20 sec) 
Heartbeat CPU 0 instructions: 1490000000 cycles: 815842711 heartbeat IPC: 1.57734 cumulative IPC: 1.57283 (Simulation time: 3 hr 36 min 34 sec) 
Heartbeat CPU 0 instructions: 1500000001 cycles: 822185044 heartbeat IPC: 1.57671 cumulative IPC: 1.57287 (Simulation time: 3 hr 37 min 48 sec) 
Heartbeat CPU 0 instructions: 1510000002 cycles: 828528561 heartbeat IPC: 1.57641 cumulative IPC: 1.5729 (Simulation time: 3 hr 39 min 2 sec) 
Heartbeat CPU 0 instructions: 1520000002 cycles: 834871280 heartbeat IPC: 1.57661 cumulative IPC: 1.57294 (Simulation time: 3 hr 40 min 16 sec) 
Heartbeat CPU 0 instructions: 1530000003 cycles: 841206642 heartbeat IPC: 1.57844 cumulative IPC: 1.57299 (Simulation time: 3 hr 41 min 34 sec) 
Heartbeat CPU 0 instructions: 1540000001 cycles: 847544945 heartbeat IPC: 1.57771 cumulative IPC: 1.57304 (Simulation time: 3 hr 42 min 50 sec) 
Heartbeat CPU 0 instructions: 1550000000 cycles: 853889235 heartbeat IPC: 1.57622 cumulative IPC: 1.57307 (Simulation time: 3 hr 44 min 5 sec) 
Heartbeat CPU 0 instructions: 1560000003 cycles: 860237433 heartbeat IPC: 1.57525 cumulative IPC: 1.57309 (Simulation time: 3 hr 45 min 21 sec) 
Heartbeat CPU 0 instructions: 1570000000 cycles: 866569847 heartbeat IPC: 1.57918 cumulative IPC: 1.57315 (Simulation time: 3 hr 46 min 38 sec) 
Heartbeat CPU 0 instructions: 1580000000 cycles: 872917308 heartbeat IPC: 1.57543 cumulative IPC: 1.57317 (Simulation time: 3 hr 47 min 54 sec) 
Heartbeat CPU 0 instructions: 1590000002 cycles: 879259563 heartbeat IPC: 1.57673 cumulative IPC: 1.5732 (Simulation time: 3 hr 49 min 9 sec) 
Heartbeat CPU 0 instructions: 1600000003 cycles: 885843365 heartbeat IPC: 1.51888 cumulative IPC: 1.57269 (Simulation time: 3 hr 50 min 25 sec) 
Heartbeat CPU 0 instructions: 1610000000 cycles: 892174445 heartbeat IPC: 1.57951 cumulative IPC: 1.57275 (Simulation time: 3 hr 51 min 40 sec) 
Heartbeat CPU 0 instructions: 1620000004 cycles: 898514049 heartbeat IPC: 1.57739 cumulative IPC: 1.57279 (Simulation time: 3 hr 52 min 54 sec) 
Heartbeat CPU 0 instructions: 1630000002 cycles: 904846388 heartbeat IPC: 1.5792 cumulative IPC: 1.57285 (Simulation time: 3 hr 54 min 8 sec) 
Heartbeat CPU 0 instructions: 1640000002 cycles: 911180856 heartbeat IPC: 1.57866 cumulative IPC: 1.5729 (Simulation time: 3 hr 55 min 22 sec) 
Heartbeat CPU 0 instructions: 1650000004 cycles: 917522257 heartbeat IPC: 1.57694 cumulative IPC: 1.57293 (Simulation time: 3 hr 56 min 37 sec) 
Heartbeat CPU 0 instructions: 1660000003 cycles: 923850220 heartbeat IPC: 1.58029 cumulative IPC: 1.573 (Simulation time: 3 hr 57 min 52 sec) 
Heartbeat CPU 0 instructions: 1670000001 cycles: 930186331 heartbeat IPC: 1.57825 cumulative IPC: 1.57304 (Simulation time: 3 hr 59 min 7 sec) 
Heartbeat CPU 0 instructions: 1680000000 cycles: 936524539 heartbeat IPC: 1.57773 cumulative IPC: 1.57308 (Simulation time: 4 hr 0 min 22 sec) 
Heartbeat CPU 0 instructions: 1690000003 cycles: 942871491 heartbeat IPC: 1.57556 cumulative IPC: 1.5731 (Simulation time: 4 hr 1 min 37 sec) 
Heartbeat CPU 0 instructions: 1700000004 cycles: 949204071 heartbeat IPC: 1.57914 cumulative IPC: 1.57315 (Simulation time: 4 hr 2 min 52 sec) 
Heartbeat CPU 0 instructions: 1710000000 cycles: 955537717 heartbeat IPC: 1.57887 cumulative IPC: 1.5732 (Simulation time: 4 hr 4 min 7 sec) 
Heartbeat CPU 0 instructions: 1720000002 cycles: 961863384 heartbeat IPC: 1.58086 cumulative IPC: 1.57326 (Simulation time: 4 hr 5 min 21 sec) 
Heartbeat CPU 0 instructions: 1730000001 cycles: 968205426 heartbeat IPC: 1.57678 cumulative IPC: 1.57329 (Simulation time: 4 hr 6 min 36 sec) 
Heartbeat CPU 0 instructions: 1740000002 cycles: 974539984 heartbeat IPC: 1.57864 cumulative IPC: 1.57333 (Simulation time: 4 hr 7 min 51 sec) 
Heartbeat CPU 0 instructions: 1750000002 cycles: 981119547 heartbeat IPC: 1.51986 cumulative IPC: 1.57289 (Simulation time: 4 hr 9 min 7 sec) 
Heartbeat CPU 0 instructions: 1760000003 cycles: 987464432 heartbeat IPC: 1.57607 cumulative IPC: 1.57292 (Simulation time: 4 hr 10 min 22 sec) 
Heartbeat CPU 0 instructions: 1770000002 cycles: 993797058 heartbeat IPC: 1.57912 cumulative IPC: 1.57296 (Simulation time: 4 hr 11 min 36 sec) 
Heartbeat CPU 0 instructions: 1780000004 cycles: 1000140219 heartbeat IPC: 1.5765 cumulative IPC: 1.57299 (Simulation time: 4 hr 12 min 51 sec) 
Heartbeat CPU 0 instructions: 1790000004 cycles: 1006469343 heartbeat IPC: 1.58 cumulative IPC: 1.57305 (Simulation time: 4 hr 14 min 6 sec) 
Heartbeat CPU 0 instructions: 1800000000 cycles: 1012817421 heartbeat IPC: 1.57528 cumulative IPC: 1.57306 (Simulation time: 4 hr 15 min 20 sec) 
Heartbeat CPU 0 instructions: 1810000000 cycles: 1019154269 heartbeat IPC: 1.57807 cumulative IPC: 1.5731 (Simulation time: 4 hr 16 min 35 sec) 
Heartbeat CPU 0 instructions: 1820000003 cycles: 1025496907 heartbeat IPC: 1.57663 cumulative IPC: 1.57313 (Simulation time: 4 hr 17 min 50 sec) 
Heartbeat CPU 0 instructions: 1830000002 cycles: 1031834333 heartbeat IPC: 1.57793 cumulative IPC: 1.57316 (Simulation time: 4 hr 19 min 5 sec) 
Heartbeat CPU 0 instructions: 1840000002 cycles: 1038165246 heartbeat IPC: 1.57955 cumulative IPC: 1.57321 (Simulation time: 4 hr 20 min 19 sec) 
Heartbeat CPU 0 instructions: 1850000004 cycles: 1044506944 heartbeat IPC: 1.57687 cumulative IPC: 1.57324 (Simulation time: 4 hr 21 min 34 sec) 
Heartbeat CPU 0 instructions: 1860000004 cycles: 1050843251 heartbeat IPC: 1.57821 cumulative IPC: 1.57327 (Simulation time: 4 hr 22 min 49 sec) 
Heartbeat CPU 0 instructions: 1870000001 cycles: 1057187208 heartbeat IPC: 1.5763 cumulative IPC: 1.5733 (Simulation time: 4 hr 24 min 3 sec) 
Heartbeat CPU 0 instructions: 1880000001 cycles: 1063524058 heartbeat IPC: 1.57807 cumulative IPC: 1.57333 (Simulation time: 4 hr 25 min 17 sec) 
Heartbeat CPU 0 instructions: 1890000003 cycles: 1069870245 heartbeat IPC: 1.57575 cumulative IPC: 1.57335 (Simulation time: 4 hr 26 min 32 sec) 
Heartbeat CPU 0 instructions: 1900000003 cycles: 1076437505 heartbeat IPC: 1.52271 cumulative IPC: 1.57297 (Simulation time: 4 hr 27 min 47 sec) 
Heartbeat CPU 0 instructions: 1910000002 cycles: 1082777913 heartbeat IPC: 1.57719 cumulative IPC: 1.573 (Simulation time: 4 hr 29 min 2 sec) 
Heartbeat CPU 0 instructions: 1920000003 cycles: 1089104868 heartbeat IPC: 1.58054 cumulative IPC: 1.57306 (Simulation time: 4 hr 30 min 16 sec) 
Heartbeat CPU 0 instructions: 1930000004 cycles: 1095448204 heartbeat IPC: 1.57646 cumulative IPC: 1.57308 (Simulation time: 4 hr 31 min 30 sec) 
Heartbeat CPU 0 instructions: 1940000004 cycles: 1101780700 heartbeat IPC: 1.57916 cumulative IPC: 1.57312 (Simulation time: 4 hr 32 min 44 sec) 
Heartbeat CPU 0 instructions: 1950000001 cycles: 1108118951 heartbeat IPC: 1.57772 cumulative IPC: 1.57315 (Simulation time: 4 hr 33 min 59 sec) 
Heartbeat CPU 0 instructions: 1960000001 cycles: 1114460977 heartbeat IPC: 1.57678 cumulative IPC: 1.57318 (Simulation time: 4 hr 35 min 13 sec) 
Heartbeat CPU 0 instructions: 1970000002 cycles: 1120788932 heartbeat IPC: 1.58029 cumulative IPC: 1.57323 (Simulation time: 4 hr 36 min 27 sec) 
Heartbeat CPU 0 instructions: 1980000004 cycles: 1127127282 heartbeat IPC: 1.5777 cumulative IPC: 1.57326 (Simulation time: 4 hr 37 min 41 sec) 
Heartbeat CPU 0 instructions: 1990000004 cycles: 1133461649 heartbeat IPC: 1.57869 cumulative IPC: 1.57329 (Simulation time: 4 hr 38 min 55 sec) 
*** Reached end of trace: traces/607.cactuBSSN_s-4004B.champsimtrace.xz
Heartbeat CPU 0 instructions: 2000000003 cycles: 1139806257 heartbeat IPC: 1.57614 cumulative IPC: 1.57331 (Simulation time: 4 hr 40 min 9 sec) 
Finished CPU 0 instructions: 1500000004 cycles: 953402096 cumulative IPC: 1.57331 (Simulation time: 4 hr 40 min 9 sec) 

ChampSim completed all CPUs

Region of Interest Statistics

CPU 0 cumulative IPC: 1.57331 instructions: 1500000004 cycles: 953402096
cpu0_DTLB TOTAL     ACCESS:  366609349  HIT:  308797012  MISS:   57812337
cpu0_DTLB LOAD      ACCESS:  315109234  HIT:  264156112  MISS:   50953122
cpu0_DTLB RFO       ACCESS:   51500115  HIT:   44640900  MISS:    6859215
cpu0_DTLB PREFETCH  ACCESS:          0  HIT:          0  MISS:          0
cpu0_DTLB WRITEBACK ACCESS:          0  HIT:          0  MISS:          0
cpu0_DTLB TRANSLATION ACCESS:          0  HIT:          0  MISS:          0
cpu0_DTLB PREFETCH  REQUESTED:          0  ISSUED:          0  USEFUL:          0  USELESS:          0
cpu0_DTLB AVERAGE MISS LATENCY: 9.60937 cycles
cpu0_ITLB TOTAL     ACCESS:   28840122  HIT:   28840112  MISS:         10
cpu0_ITLB LOAD      ACCESS:   28840122  HIT:   28840112  MISS:         10
cpu0_ITLB RFO       ACCESS:          0  HIT:          0  MISS:          0
cpu0_ITLB PREFETCH  ACCESS:          0  HIT:          0  MISS:          0
cpu0_ITLB WRITEBACK ACCESS:          0  HIT:          0  MISS:          0
cpu0_ITLB TRANSLATION ACCESS:          0  HIT:          0  MISS:          0
cpu0_ITLB PREFETCH  REQUESTED:          0  ISSUED:          0  USEFUL:          0  USELESS:          0
cpu0_ITLB AVERAGE MISS LATENCY: 236.4 cycles
cpu0_L1I TOTAL     ACCESS:  146862413  HIT:  131925312  MISS:   14937101
cpu0_L1I LOAD      ACCESS:  146862413  HIT:  131925312  MISS:   14937101
cpu0_L1I RFO       ACCESS:          0  HIT:          0  MISS:          0
cpu0_L1I PREFETCH  ACCESS:          0  HIT:          0  MISS:          0
cpu0_L1I WRITEBACK ACCESS:          0  HIT:          0  MISS:          0
cpu0_L1I TRANSLATION ACCESS:          0  HIT:          0  MISS:          0
cpu0_L1I PREFETCH  REQUESTED:          0  ISSUED:          0  USEFUL:          0  USELESS:          0
cpu0_L1I AVERAGE MISS LATENCY: 11.2262 cycles
cpu0_STLB TOTAL     ACCESS:   57812347  HIT:   57749358  MISS:      62989
cpu0_STLB LOAD      ACCESS:   50953132  HIT:   50904176  MISS:      48956
cpu0_STLB RFO       ACCESS:    6859215  HIT:    6845182  MISS:      14033
cpu0_STLB PREFETCH  ACCESS:          0  HIT:          0  MISS:          0
cpu0_STLB WRITEBACK ACCESS:          0  HIT:          0  MISS:          0
cpu0_STLB TRANSLATION ACCESS:          0  HIT:          0  MISS:          0
cpu0_STLB PREFETCH  REQUESTED:          0  ISSUED:          0  USEFUL:          0  USELESS:          0
cpu0_STLB AVERAGE MISS LATENCY: 190.274 cycles
cpu0_L1D TOTAL     ACCESS:  562431484  HIT:  452863101  MISS:  109568383
cpu0_L1D LOAD      ACCESS:  442411990  HIT:  342067602  MISS:  100344388
cpu0_L1D RFO       ACCESS:  119957247  HIT:  110794940  MISS:    9162307
cpu0_L1D PREFETCH  ACCESS:          0  HIT:          0  MISS:          0
cpu0_L1D WRITEBACK ACCESS:          0  HIT:          0  MISS:          0
cpu0_L1D TRANSLATION ACCESS:      62247  HIT:        559  MISS:      61688
cpu0_L1D PREFETCH  REQUESTED:          0  ISSUED:          0  USEFUL:          0  USELESS:          0
cpu0_L1D AVERAGE MISS LATENCY: 48.5633 cycles
cpu0_L2C TOTAL     ACCESS:  134213375  HIT:  126254066  MISS:    7959309
cpu0_L2C LOAD      ACCESS:  115268624  HIT:  108264513  MISS:    7004111
cpu0_L2C RFO       ACCESS:    9121070  HIT:    8193962  MISS:     927108
cpu0_L2C PREFETCH  ACCESS:          0  HIT:          0  MISS:          0
cpu0_L2C WRITEBACK ACCESS:    9761993  HIT:    9759828  MISS:       2165
cpu0_L2C TRANSLATION ACCESS:      61688  HIT:      35763  MISS:      25925
cpu0_L2C PREFETCH  REQUESTED:          0  ISSUED:          0  USEFUL:          0  USELESS:          0
cpu0_L2C AVERAGE MISS LATENCY: 504.551 cycles
LLC TOTAL     ACCESS:    8864752  HIT:    4884645  MISS:    3980107
LLC LOAD      ACCESS:    7004081  HIT:    3908476  MISS:    3095605
LLC RFO       ACCESS:     905376  HIT:      22443  MISS:     882933
LLC PREFETCH  ACCESS:          0  HIT:          0  MISS:          0
LLC WRITEBACK ACCESS:     929370  HIT:     928312  MISS:       1058
LLC TRANSLATION ACCESS:      25925  HIT:      25414  MISS:        511
LLC PREFETCH  REQUESTED:          0  ISSUED:          0  USEFUL:          0  USELESS:          0
LLC AVERAGE MISS LATENCY: 967.112 cycles
~~~~~~~~~~Reuse Distance Profiler output~~~~~~~~~~
0	17970720	3715840
1	13857680	5647616
2	13703328	8859248
3	15534464	11726896
4	17047200	12927296
5	16680768	13439312
6	17048416	14281104
7	17044176	14885184
8	15247168	13181312
9	15170352	13364080
10	13544192	12044752
11	12848928	11210944
12	12179456	9888096
13	11544592	9290944
14	9411520	7992336
15	8688192	7250656
16	8775200	6715952
17	8510608	6720256
18	7964432	6316864
19	8682256	6976112
20	8630992	6860112
21	8295536	6784160
22	7886720	6512128
23	6998816	5913472
24	6971120	5847632
25	6632784	5317296
26	7130704	5816480
27	6401360	5237248
28	6450112	5011216
29	6555280	5538848
30	6552272	5297744
31	6336544	5170320
32	6116608	4847024
33	5392000	4239200
34	5517952	4375632
35	4759792	3771728
36	5017392	3802816
37	4613024	3658960
38	4476800	3707696
39	4268944	3608912
40	4304976	3611024
41	3850608	3131472
42	4157968	3146576
43	4446944	3511328
44	3785296	3029664
45	3738016	2962640
46	3571360	2685952
47	3880048	3081648
48	3042816	2446368
49	3193104	2637520
50	3058704	2402960
51	3435984	2711104
52	3405088	2668128
53	3212448	2721232
54	3057280	2648912
55	2759536	2342096
56	2648208	2176736
57	2542880	2095312
58	2298096	1781872
59	2174944	1763424
60	2034848	1665712
61	2171920	1858000
62	2185552	1811472
63	1878560	1509104
64	4173136	3292848
66	3633904	3028304
68	3478576	2959312
70	3359680	2766848
72	3181280	2529088
74	3429520	2698384
76	3154480	2378512
78	3212016	2437280
80	3401280	2516352
82	3251120	2479872
84	3414752	2522048
86	3350048	2632608
88	2843888	2190128
90	2458928	1776608
92	2009968	1330304
94	1810112	1179200
96	1629792	1186976
98	1827136	1260912
100	1631120	1137184
102	1323152	919760
104	1276128	981120
106	1321392	949584
108	1368256	1012240
110	1151344	753216
112	1013360	634976
114	950032	673440
116	1167872	889072
118	1273552	916720
120	1197600	844208
122	1207232	711056
124	946768	582944
126	976672	586064
128	1992688	1308640
132	2234272	1642704
136	2101792	1380176
140	1847024	1144576
144	1779824	1176784
148	1439200	997360
152	1583120	1181248
156	1251600	885440
160	820032	625120
164	672736	515648
168	850096	671440
172	899840	577248
176	1455376	1019184
180	1210816	811952
184	890848	626240
188	822432	623840
192	636320	463696
196	741488	574160
200	783504	659904
204	848784	769632
208	735568	601184
212	743824	558848
216	730672	542688
220	584656	394080
224	710032	383152
228	785376	303664
232	621680	325664
236	443264	244976
240	415600	298048
244	245072	162944
248	229808	130336
252	357488	160224
256	828800	470448
264	1146480	826432
272	580688	389136
280	459296	421968
288	542784	469744
296	825856	624896
304	856000	641696
312	708960	451936
320	838896	500336
328	1233088	682352
336	789168	434192
344	816208	434112
352	597568	416672
360	707728	642912
368	934992	892528
376	1259680	1232576
384	788832	705264
392	672736	458896
400	576512	324928
408	450880	239968
416	525088	360752
424	510704	360640
432	490672	314560
440	358336	228064
448	279760	199440
456	260032	195360
464	386288	231408
472	553216	305792
480	605248	403568
488	708880	564656
496	525968	439328
504	385680	318480
512	534656	370544
528	846848	653088
544	532480	387200
560	484400	304752
576	332304	199648
592	449392	309376
608	479648	357808
624	669072	587920
640	736928	562480
656	570496	356848
672	317520	169696
688	588496	304720
704	579920	482512
720	339088	275824
736	294608	158832
752	269088	128224
768	271424	135024
784	209856	118080
800	372192	317872
816	516800	474768
832	307776	222320
848	185024	137312
864	135904	122160
880	326768	225648
896	443392	292336
912	267568	155424
928	304880	191040
944	388496	155616
960	317984	90656
976	203392	38528
992	213424	11280
1008	233712	42704
1024	792320	425872
1056	705824	293776
1088	598752	170160
1120	527984	99376
1152	922592	337024
1184	1900064	1082432
1216	1420624	851040
1248	914368	335680
1280	1094512	662912
1312	736000	316096
1344	992512	600240
1376	995456	343664
1408	796736	284464
1440	585072	376704
1472	614976	302160
1504	677280	324800
1536	549392	339152
1568	422496	261024
1600	382288	302560
1632	502720	379440
1664	837808	522688
1696	903936	744336
1728	935408	760752
1760	773008	528896
1792	651568	381648
1824	893632	730512
1856	1510800	1439536
1888	2255264	2117872
1920	4367824	4281648
1952	7377744	7265344
1984	12104304	11758960
2016	23122672	21142944
2048	44989696	41518480
2112	4428016	4172000
2176	7863120	7653056
2240	24324560	22377360
2304	816	816
2368	16	16
2432	16	16
2496	48	48
2560	32	32
2624	64	64
2688	16	16
2752	32	32
2816	32	32
2880	0	0
2944	0	0
3008	0	0
3072	0	0
3136	0	0
3200	16	16
3264	32	16
3328	0	0
3392	0	0
3456	0	0
3520	0	0
3584	16	16
3648	16	0
3712	16	16
3776	16	16
3840	32	32
3904	208	192
3968	4576	4576
4032	12512	12512
4096	8848	8848
4224	64	48
4352	176	176
4480	3216	3184
4608	1040	1008
4736	96	96
4864	0	0
4992	0	0
5120	0	0
5248	0	0
5376	0	0
5504	0	0
5632	0	0
5760	0	0
5888	128	128
6016	5440	5440
6144	4896	4896
6272	48	48
6400	0	0
6528	0	0
6656	1984	1984
6784	1328	1328
6912	0	0
7040	0	0
7168	0	0
7296	0	0
7424	0	0
7552	0	0
7680	0	0
7808	0	0
7936	48	48
8064	3664	3664
8192	5120	5120
8448	0	0
8704	16	16
8960	5120	5120
9216	0	0
9472	0	0
9728	0	0
9984	2704	2704
10240	7296	7296
10496	0	0
10752	0	0
11008	272	272
11264	720	720
11520	0	0
11776	0	0
12032	2048	2048
12288	7600	7600
12544	0	0
12800	16	16
13056	0	0
13312	3440	3440
13568	1552	1552
13824	0	0
14080	704	704
14336	3984	3984
14592	16	16
14848	0	0
15104	0	0
15360	0	0
15616	3328	3328
15872	32	32
16128	736	736
16384	23232	23232
16896	0	0
17408	0	0
17920	3200	3200
18432	16944	16944
18944	0	0
19456	0	0
19968	20784	20784
20480	328032	328032
20992	32	32
21504	0	0
22016	8608	8608
22528	108608	108608
23040	16	16
23552	0	0
24064	80	80
24576	1408	1408
25088	0	0
25600	0	0
26112	32	32
26624	1872	1872
27136	64	64
27648	0	0
28160	112	112
28672	1472	1472
29184	256	256
29696	0	0
30208	32	32
30720	1024	1024
31232	256	256
31744	0	0
32256	0	0
32768	1168	1168
33792	176	176
34816	3440	3440
35840	448	448
36864	944	944
37888	960	960
38912	240	240
39936	288	288
40960	224	224
41984	192	192
43008	224	224
44032	0	0
45056	416	416
46080	0	0
47104	832	832
48128	0	0
49152	256	256
50176	0	0
51200	416	416
52224	0	0
53248	416	416
54272	48	48
55296	6224	6224
56320	96	96
57344	160	160
58368	112	112
59392	176	176
60416	2752	2752
61440	32	32
62464	48	48
63488	64	64
64512	32	32
65536	96	96
67584	48	48
69632	0	0
71680	176	176
73728	80	80
75776	6080	6080
77824	64	64
79872	32	32
81920	2528	2528
83968	16	16
86016	0	0
88064	0	0
90112	0	0
92160	0	0
94208	0	0
96256	0	0
98304	0	0
100352	0	0
102400	0	0
104448	0	0
106496	0	0
108544	0	0
110592	0	0
112640	0	0
114688	0	0
116736	0	0
118784	0	0
120832	0	0
122880	0	0
124928	0	0
126976	0	0
129024	0	0
131072	0	0
135168	0	0
139264	0	0
143360	0	0
147456	0	0
151552	0	0
155648	0	0
159744	0	0
163840	0	0
167936	0	0
172032	0	0
176128	0	0
180224	0	0
184320	0	0
188416	0	0
192512	0	0
196608	0	0
200704	0	0
204800	0	0
208896	0	0
212992	0	0
217088	0	0
221184	0	0
225280	0	0
229376	0	0
233472	0	0
237568	0	0
241664	0	0
245760	0	0
249856	0	0
253952	0	0
258048	0	0
262144	0	0
270336	0	0
278528	0	0
286720	48	48
294912	112	112
303104	288	288
311296	303152	303152
319488	4703936	4703936
327680	3042624	3042624
335872	227104	227104
344064	471536	471536
352256	2090320	2090320
360448	155472	155472
368640	52544	52544
376832	1120	1120
385024	352	352
393216	320	320
401408	240	240
409600	64	64
417792	144	144
425984	48	48
434176	32	32
442368	48	48
450560	16	16
458752	0	0
466944	0	0
475136	0	0
483328	0	0
491520	0	0
499712	0	0
507904	0	0
516096	0	0
524288	0	0
540672	0	0
557056	0	0
573440	0	0
589824	0	0
606208	0	0
622592	32	32
638976	288	288
655360	1248	1248
671744	1200	1200
688128	1552	1552
704512	624	624
720896	624	624
737280	816	816
753664	592	592
770048	256	256
786432	32	32
802816	64	64
819200	16	16
835584	16	16
851968	0	0
868352	0	0
884736	0	0
901120	0	0
917504	0	0
933888	0	0
950272	0	0
966656	128	128
983040	208	208
999424	896	896
1015808	1280	1280
1032192	1296	1296
1048576	784	784
1081344	512	512
1114112	704	704
1146880	224	224
1179648	48	48
1212416	0	0
1245184	0	0
1277952	0	0
1310720	256	256
1343488	1296	1296
1376256	1104	1104
1409024	352	352
1441792	176	176
1474560	416	416
1507328	336	336
1540096	64	64
1572864	0	0
1605632	0	0
1638400	32	32
1671168	816	816
1703936	1680	1680
1736704	336	336
1769472	48	48
1802240	64	64
1835008	528	528
1867776	432	432
1900544	80	80
1933312	16	16
1966080	0	0
1998848	304	304
2031616	976	976
2064384	720	720
2097152	64	64
2162688	160	160
2228224	384	384
2293760	16	16
2359296	1312	1312
2424832	304	304
2490368	0	0
2555904	368	368
2621440	208	208
2686976	1056	1056
2752512	496	496
2818048	0	0
2883584	0	0
2949120	352	352
3014656	544	544
3080192	848	848
3145728	0	0
3211264	0	0
3276800	32	32
3342336	416	416
3407872	5056	5056
3473408	16	16
3538944	16	16
3604480	0	0
3670016	112	112
3735552	2128	2128
3801088	0	0
3866624	0	0
3932160	0	0
3997696	0	0
4063232	96	96
4128768	32	32
4194304	0	0
4325376	48	48
4456448	80	80
4587520	0	0
4718592	48	48
4849664	16	16
4980736	16	0
5111808	112	112
5242880	32	32
5373952	16	16
5505024	0	0
5636096	16	16
5767168	48	48
5898240	32	32
6029312	32	32
6160384	32	32
6291456	0	0
6422528	0	0
6553600	0	0
6684672	0	0
6815744	16	16
6946816	0	0
7077888	64	16
7208960	0	0
7340032	0	0
7471104	0	0
7602176	0	0
7733248	0	0
7864320	16	16
7995392	0	0
8126464	0	0
8257536	16	16
8388608	0	0
8650752	0	0
8912896	0	0
9175040	0	0
9437184	0	0
9699328	0	0
9961472	0	0
10223616	0	0
10485760	0	0
10747904	0	0
11010048	0	0
11272192	0	0
11534336	0	0
11796480	0	0
12058624	0	0
12320768	0	0
12582912	0	0
12845056	0	0
13107200	0	0
13369344	0	0
13631488	0	0
13893632	0	0
14155776	0	0
14417920	0	0
14680064	0	0
14942208	0	0
15204352	0	0
15466496	0	0
15728640	0	0
15990784	0	0
16252928	0	0
16515072	16	16
16777216	0	0
17301504	0	0
17825792	0	0
18350080	0	0
18874368	0	0
19398656	0	0
19922944	0	0
20447232	0	0
20971520	0	0
21495808	0	0
22020096	0	0
22544384	0	0
23068672	0	0
23592960	0	0
24117248	0	0
24641536	0	0
25165824	0	0
25690112	0	0
26214400	0	0
26738688	0	0
27262976	0	0
27787264	0	0
28311552	0	0
28835840	0	0
29360128	0	0
29884416	0	0
30408704	0	0
30932992	0	0
31457280	0	0
31981568	0	0
32505856	0	0
33030144	0	0
33554432	0	0
34603008	0	0
35651584	0	0
36700160	32	16
37748736	0	0
38797312	0	0
39845888	0	0
40894464	0	0
41943040	0	0
42991616	0	0
44040192	0	0
45088768	0	0
46137344	0	0
47185920	0	0
48234496	0	0
49283072	0	0
50331648	48	48
51380224	64	64
52428800	48	48
53477376	80	80
54525952	1367888	1367888
55574528	341360	341360
56623104	312672	312672
57671680	41840	41840
58720256	38544	38544
59768832	403360	403360
60817408	88624	88624
61865984	73184	73184
62914560	0	0
63963136	0	0
65011712	0	0
66060288	0	0
67108864	0	0
69206016	0	0
71303168	0	0
73400320	0	0
75497472	0	0
77594624	0	0
79691776	0	0
81788928	0	0
83886080	0	0
85983232	0	0
88080384	0	0
90177536	0	0
92274688	0	0
94371840	0	0
96468992	0	0
98566144	0	0
100663296	0	0
102760448	0	0
104857600	0	0
106954752	0	0
109051904	0	0
111149056	16	16
113246208	0	0
115343360	0	0
117440512	0	0
119537664	0	0
121634816	0	0
123731968	64	16
125829120	0	0
127926272	0	0
130023424	0	0
132120576	0	0
134217728	0	0
138412032	0	0
142606336	0	0
146800640	0	0
150994944	0	0
155189248	0	0
159383552	0	0
163577856	0	0
167772160	0	0
171966464	0	0
176160768	0	0
180355072	0	0
184549376	0	0
188743680	0	0
192937984	0	0
197132288	0	0
201326592	0	0
205520896	0	0
209715200	0	0
213909504	0	0
218103808	0	0
222298112	0	0
226492416	0	0
230686720	0	0
234881024	0	0
239075328	0	0
243269632	0	0
247463936	0	0
251658240	0	0
255852544	0	0
260046848	0	0
264241152	0	0
268435456	0	0
276824064	0	0
285212672	0	0
293601280	0	0
301989888	0	0
310378496	0	0
318767104	0	0
327155712	0	0
335544320	0	0
343932928	0	0
352321536	0	0
360710144	0	0
369098752	0	0
377487360	0	0
385875968	0	0
394264576	0	0
402653184	0	0
411041792	0	0
419430400	0	0
427819008	0	0
436207616	0	0
444596224	0	0
452984832	0	0
461373440	0	0
469762048	0	0
478150656	0	0
486539264	0	0
494927872	0	0
503316480	0	0
511705088	0	0
520093696	0	0
528482304	0	0
536870912	0	0
553648128	0	0
570425344	0	0
587202560	0	0
603979776	0	0
620756992	0	0
637534208	0	0
654311424	0	0
671088640	0	0
687865856	0	0
704643072	0	0
721420288	0	0
738197504	0	0
754974720	16	16
771751936	0	0
788529152	0	0
805306368	0	0
822083584	0	0
838860800	0	0
855638016	0	0
872415232	0	0
889192448	0	0
905969664	0	0
922746880	0	0
939524096	0	0
956301312	0	0
973078528	0	0
989855744	0	0
1006632960	0	0
1023410176	0	0
1040187392	0	0
1056964608	0	0
1073741824	0	0
1107296256	0	0
1140850688	0	0
1174405120	0	0
1207959552	0	0
1241513984	0	0
1275068416	0	0
1308622848	0	0
1342177280	0	0
1375731712	0	0
1409286144	0	0
1442840576	0	0
1476395008	0	0
1509949440	0	0
1543503872	0	0
1577058304	0	0
1610612736	0	0
1644167168	0	0
1677721600	0	0
1711276032	0	0
1744830464	0	0
1778384896	0	0
1811939328	0	0
1845493760	0	0
1879048192	0	0
1912602624	0	0
1946157056	0	0
1979711488	0	0
2013265920	0	0
2046820352	0	0
2080374784	0	0
2113929216	0	0
2147483648	0	0
2214592512	0	0
2281701376	0	0
2348810240	0	0
2415919104	0	0
2483027968	0	0
2550136832	0	0
2617245696	0	0
2684354560	0	0
2751463424	0	0
2818572288	0	0
2885681152	0	0
2952790016	0	0
3019898880	0	0
3087007744	0	0
3154116608	0	0
3221225472	0	0
3288334336	0	0
3355443200	0	0
3422552064	0	0
3489660928	0	0
3556769792	0	0
3623878656	0	0
3690987520	0	0
3758096384	0	0
3825205248	0	0
3892314112	0	0
3959422976	0	0
4026531840	0	0
4093640704	0	0
4160749568	0	0
4227858432	0	0
~~~~~~~~~~Reuse Distance Profiler output end~~~~~~~~~~

DRAM Statistics
 CHANNEL 0
 RQ ROW_BUFFER_HIT:        570  ROW_BUFFER_MISS:    3978479
 DBUS AVG_CONGESTED_CYCLE:    3.99986
 WQ ROW_BUFFER_HIT:       6986  ROW_BUFFER_MISS:     877074  FULL:          0


CPU 0 Branch Prediction Accuracy: 99.9502% MPKI: 0.004444 Average ROB Occupancy at Mispredict: 54.9959
Branch type MPKI
BRANCH_DIRECT_JUMP: 1.8e-05
BRANCH_INDIRECT: 2.66667e-06
BRANCH_CONDITIONAL: 0.00436867
BRANCH_DIRECT_CALL: 2.8e-05
BRANCH_INDIRECT_CALL: 0
BRANCH_RETURN: 2.66667e-05

