
*** ChampSim Multicore Out-of-Order Simulator ***

Warmup Instructions: 500000000
Simulation Instructions: 1500000000
Number of CPUs: 1
Off-chip DRAM Size: 4 GiB Channels: 1 Width: 64-bit Data Rate: 3200 MT/s

VirtualMemory physical capacity: 8588881920 num_ppages: 2096895
VirtualMemory page size: 4096 log2_page_size: 12

CPU 0 runs traces/607.cactuBSSN_s-4248B.champsimtrace.xz
CPU 0 Bimodal branch predictor
Basic BTB sets: 1024 ways: 8 indirect buffer size: 4096 RAS size: 64
Initializing LRU.
Initializing LRU.
Initializing LRU.
Initializing LRU.
Initializing rdLRU.
Initializing LRU.
Initializing LRU.
Heartbeat CPU 0 instructions: 10000003 cycles: 2500075 heartbeat IPC: 3.99988 cumulative IPC: 3.99988 (Simulation time: 0 hr 0 min 42 sec) 
Heartbeat CPU 0 instructions: 20000003 cycles: 5000075 heartbeat IPC: 4 cumulative IPC: 3.99994 (Simulation time: 0 hr 1 min 29 sec) 
Heartbeat CPU 0 instructions: 30000003 cycles: 7500075 heartbeat IPC: 4 cumulative IPC: 3.99996 (Simulation time: 0 hr 2 min 13 sec) 
Heartbeat CPU 0 instructions: 40000003 cycles: 10000075 heartbeat IPC: 4 cumulative IPC: 3.99997 (Simulation time: 0 hr 2 min 49 sec) 
Heartbeat CPU 0 instructions: 50000003 cycles: 12500075 heartbeat IPC: 4 cumulative IPC: 3.99998 (Simulation time: 0 hr 3 min 32 sec) 
Heartbeat CPU 0 instructions: 60000003 cycles: 15000075 heartbeat IPC: 4 cumulative IPC: 3.99998 (Simulation time: 0 hr 4 min 8 sec) 
Heartbeat CPU 0 instructions: 70000003 cycles: 17500075 heartbeat IPC: 4 cumulative IPC: 3.99998 (Simulation time: 0 hr 4 min 41 sec) 
Heartbeat CPU 0 instructions: 80000003 cycles: 20000075 heartbeat IPC: 4 cumulative IPC: 3.99999 (Simulation time: 0 hr 5 min 17 sec) 
Heartbeat CPU 0 instructions: 90000003 cycles: 22500075 heartbeat IPC: 4 cumulative IPC: 3.99999 (Simulation time: 0 hr 6 min 3 sec) 
Heartbeat CPU 0 instructions: 100000003 cycles: 25000075 heartbeat IPC: 4 cumulative IPC: 3.99999 (Simulation time: 0 hr 6 min 44 sec) 
Heartbeat CPU 0 instructions: 110000003 cycles: 27500075 heartbeat IPC: 4 cumulative IPC: 3.99999 (Simulation time: 0 hr 7 min 29 sec) 
Heartbeat CPU 0 instructions: 120000003 cycles: 30000075 heartbeat IPC: 4 cumulative IPC: 3.99999 (Simulation time: 0 hr 8 min 0 sec) 
Heartbeat CPU 0 instructions: 130000003 cycles: 32500075 heartbeat IPC: 4 cumulative IPC: 3.99999 (Simulation time: 0 hr 8 min 37 sec) 
Heartbeat CPU 0 instructions: 140000003 cycles: 35000075 heartbeat IPC: 4 cumulative IPC: 3.99999 (Simulation time: 0 hr 9 min 21 sec) 
Heartbeat CPU 0 instructions: 150000003 cycles: 37500075 heartbeat IPC: 4 cumulative IPC: 3.99999 (Simulation time: 0 hr 10 min 10 sec) 
Heartbeat CPU 0 instructions: 160000003 cycles: 40000075 heartbeat IPC: 4 cumulative IPC: 3.99999 (Simulation time: 0 hr 10 min 57 sec) 
Heartbeat CPU 0 instructions: 170000003 cycles: 42500075 heartbeat IPC: 4 cumulative IPC: 3.99999 (Simulation time: 0 hr 11 min 45 sec) 
Heartbeat CPU 0 instructions: 180000003 cycles: 45000075 heartbeat IPC: 4 cumulative IPC: 3.99999 (Simulation time: 0 hr 12 min 35 sec) 
Heartbeat CPU 0 instructions: 190000003 cycles: 47500075 heartbeat IPC: 4 cumulative IPC: 3.99999 (Simulation time: 0 hr 13 min 5 sec) 
Heartbeat CPU 0 instructions: 200000003 cycles: 50000075 heartbeat IPC: 4 cumulative IPC: 3.99999 (Simulation time: 0 hr 13 min 47 sec) 
Heartbeat CPU 0 instructions: 210000003 cycles: 52500075 heartbeat IPC: 4 cumulative IPC: 3.99999 (Simulation time: 0 hr 14 min 36 sec) 
Heartbeat CPU 0 instructions: 220000003 cycles: 55000075 heartbeat IPC: 4 cumulative IPC: 3.99999 (Simulation time: 0 hr 15 min 22 sec) 
Heartbeat CPU 0 instructions: 230000003 cycles: 57500075 heartbeat IPC: 4 cumulative IPC: 3.99999 (Simulation time: 0 hr 16 min 11 sec) 
Heartbeat CPU 0 instructions: 240000003 cycles: 60000075 heartbeat IPC: 4 cumulative IPC: 3.99999 (Simulation time: 0 hr 17 min 0 sec) 
Heartbeat CPU 0 instructions: 250000003 cycles: 62500075 heartbeat IPC: 4 cumulative IPC: 4 (Simulation time: 0 hr 17 min 49 sec) 
Heartbeat CPU 0 instructions: 260000003 cycles: 65000075 heartbeat IPC: 4 cumulative IPC: 4 (Simulation time: 0 hr 18 min 38 sec) 
Heartbeat CPU 0 instructions: 270000003 cycles: 67500075 heartbeat IPC: 4 cumulative IPC: 4 (Simulation time: 0 hr 19 min 27 sec) 
Heartbeat CPU 0 instructions: 280000003 cycles: 70000075 heartbeat IPC: 4 cumulative IPC: 4 (Simulation time: 0 hr 20 min 12 sec) 
Heartbeat CPU 0 instructions: 290000003 cycles: 72500075 heartbeat IPC: 4 cumulative IPC: 4 (Simulation time: 0 hr 20 min 46 sec) 
Heartbeat CPU 0 instructions: 300000003 cycles: 75000075 heartbeat IPC: 4 cumulative IPC: 4 (Simulation time: 0 hr 21 min 14 sec) 
Heartbeat CPU 0 instructions: 310000003 cycles: 77500075 heartbeat IPC: 4 cumulative IPC: 4 (Simulation time: 0 hr 21 min 50 sec) 
Heartbeat CPU 0 instructions: 320000003 cycles: 80000075 heartbeat IPC: 4 cumulative IPC: 4 (Simulation time: 0 hr 22 min 37 sec) 
Heartbeat CPU 0 instructions: 330000003 cycles: 82500075 heartbeat IPC: 4 cumulative IPC: 4 (Simulation time: 0 hr 23 min 22 sec) 
Heartbeat CPU 0 instructions: 340000003 cycles: 85000075 heartbeat IPC: 4 cumulative IPC: 4 (Simulation time: 0 hr 23 min 56 sec) 
Heartbeat CPU 0 instructions: 350000003 cycles: 87500075 heartbeat IPC: 4 cumulative IPC: 4 (Simulation time: 0 hr 24 min 32 sec) 
Heartbeat CPU 0 instructions: 360000003 cycles: 90000075 heartbeat IPC: 4 cumulative IPC: 4 (Simulation time: 0 hr 25 min 2 sec) 
Heartbeat CPU 0 instructions: 370000003 cycles: 92500075 heartbeat IPC: 4 cumulative IPC: 4 (Simulation time: 0 hr 25 min 38 sec) 
Heartbeat CPU 0 instructions: 380000003 cycles: 95000075 heartbeat IPC: 4 cumulative IPC: 4 (Simulation time: 0 hr 26 min 27 sec) 
Heartbeat CPU 0 instructions: 390000003 cycles: 97500075 heartbeat IPC: 4 cumulative IPC: 4 (Simulation time: 0 hr 27 min 16 sec) 
Heartbeat CPU 0 instructions: 400000003 cycles: 100000075 heartbeat IPC: 4 cumulative IPC: 4 (Simulation time: 0 hr 28 min 5 sec) 
Heartbeat CPU 0 instructions: 410000003 cycles: 102500075 heartbeat IPC: 4 cumulative IPC: 4 (Simulation time: 0 hr 28 min 54 sec) 
Heartbeat CPU 0 instructions: 420000003 cycles: 105000075 heartbeat IPC: 4 cumulative IPC: 4 (Simulation time: 0 hr 29 min 44 sec) 
Heartbeat CPU 0 instructions: 430000003 cycles: 107500075 heartbeat IPC: 4 cumulative IPC: 4 (Simulation time: 0 hr 30 min 33 sec) 
Heartbeat CPU 0 instructions: 440000003 cycles: 110000075 heartbeat IPC: 4 cumulative IPC: 4 (Simulation time: 0 hr 31 min 22 sec) 
Heartbeat CPU 0 instructions: 450000003 cycles: 112500075 heartbeat IPC: 4 cumulative IPC: 4 (Simulation time: 0 hr 32 min 8 sec) 
Heartbeat CPU 0 instructions: 460000003 cycles: 115000075 heartbeat IPC: 4 cumulative IPC: 4 (Simulation time: 0 hr 32 min 38 sec) 
Heartbeat CPU 0 instructions: 470000003 cycles: 117500075 heartbeat IPC: 4 cumulative IPC: 4 (Simulation time: 0 hr 33 min 27 sec) 
Heartbeat CPU 0 instructions: 480000003 cycles: 120000075 heartbeat IPC: 4 cumulative IPC: 4 (Simulation time: 0 hr 34 min 16 sec) 
Heartbeat CPU 0 instructions: 490000003 cycles: 122500075 heartbeat IPC: 4 cumulative IPC: 4 (Simulation time: 0 hr 35 min 2 sec) 
Heartbeat CPU 0 instructions: 500000003 cycles: 125000075 heartbeat IPC: 4 cumulative IPC: 4 (Simulation time: 0 hr 35 min 52 sec) 

Warmup complete CPU 0 instructions: 500000003 cycles: 125000075 (Simulation time: 0 hr 35 min 52 sec) 

Heartbeat CPU 0 instructions: 510000003 cycles: 131936381 heartbeat IPC: 1.44169 cumulative IPC: 1.44169 (Simulation time: 0 hr 36 min 41 sec) 
Heartbeat CPU 0 instructions: 520000002 cycles: 138871846 heartbeat IPC: 1.44186 cumulative IPC: 1.44178 (Simulation time: 0 hr 37 min 25 sec) 
Heartbeat CPU 0 instructions: 530000002 cycles: 145806937 heartbeat IPC: 1.44194 cumulative IPC: 1.44183 (Simulation time: 0 hr 37 min 53 sec) 
Heartbeat CPU 0 instructions: 540000000 cycles: 152742419 heartbeat IPC: 1.44186 cumulative IPC: 1.44184 (Simulation time: 0 hr 38 min 25 sec) 
Heartbeat CPU 0 instructions: 550000002 cycles: 159678123 heartbeat IPC: 1.44182 cumulative IPC: 1.44183 (Simulation time: 0 hr 38 min 53 sec) 
Heartbeat CPU 0 instructions: 560000003 cycles: 166613186 heartbeat IPC: 1.44195 cumulative IPC: 1.44185 (Simulation time: 0 hr 39 min 23 sec) 
Heartbeat CPU 0 instructions: 570000001 cycles: 173548316 heartbeat IPC: 1.44193 cumulative IPC: 1.44186 (Simulation time: 0 hr 40 min 9 sec) 
Heartbeat CPU 0 instructions: 580000003 cycles: 180484437 heartbeat IPC: 1.44173 cumulative IPC: 1.44185 (Simulation time: 0 hr 40 min 57 sec) 
Heartbeat CPU 0 instructions: 590000000 cycles: 187419506 heartbeat IPC: 1.44195 cumulative IPC: 1.44186 (Simulation time: 0 hr 41 min 26 sec) 
Heartbeat CPU 0 instructions: 600000002 cycles: 194354604 heartbeat IPC: 1.44194 cumulative IPC: 1.44187 (Simulation time: 0 hr 41 min 58 sec) 
Heartbeat CPU 0 instructions: 610000002 cycles: 201290684 heartbeat IPC: 1.44174 cumulative IPC: 1.44186 (Simulation time: 0 hr 42 min 46 sec) 
Heartbeat CPU 0 instructions: 620000004 cycles: 208225871 heartbeat IPC: 1.44192 cumulative IPC: 1.44186 (Simulation time: 0 hr 43 min 34 sec) 
Heartbeat CPU 0 instructions: 630000003 cycles: 215160942 heartbeat IPC: 1.44195 cumulative IPC: 1.44187 (Simulation time: 0 hr 44 min 23 sec) 
Heartbeat CPU 0 instructions: 640000000 cycles: 222096995 heartbeat IPC: 1.44174 cumulative IPC: 1.44186 (Simulation time: 0 hr 45 min 11 sec) 
Heartbeat CPU 0 instructions: 650000000 cycles: 229032100 heartbeat IPC: 1.44194 cumulative IPC: 1.44186 (Simulation time: 0 hr 45 min 59 sec) 
Heartbeat CPU 0 instructions: 660000001 cycles: 235965649 heartbeat IPC: 1.44226 cumulative IPC: 1.44189 (Simulation time: 0 hr 46 min 48 sec) 
Heartbeat CPU 0 instructions: 670000004 cycles: 242871392 heartbeat IPC: 1.44807 cumulative IPC: 1.44225 (Simulation time: 0 hr 47 min 36 sec) 
Heartbeat CPU 0 instructions: 680000002 cycles: 249776420 heartbeat IPC: 1.44822 cumulative IPC: 1.44258 (Simulation time: 0 hr 48 min 24 sec) 
Heartbeat CPU 0 instructions: 690000001 cycles: 256681330 heartbeat IPC: 1.44824 cumulative IPC: 1.44288 (Simulation time: 0 hr 49 min 12 sec) 
Heartbeat CPU 0 instructions: 700000001 cycles: 263586705 heartbeat IPC: 1.44815 cumulative IPC: 1.44314 (Simulation time: 0 hr 50 min 0 sec) 
Heartbeat CPU 0 instructions: 710000002 cycles: 270548042 heartbeat IPC: 1.43651 cumulative IPC: 1.44282 (Simulation time: 0 hr 50 min 30 sec) 
Heartbeat CPU 0 instructions: 720000003 cycles: 277199416 heartbeat IPC: 1.50345 cumulative IPC: 1.44547 (Simulation time: 0 hr 50 min 59 sec) 
Heartbeat CPU 0 instructions: 730000004 cycles: 283849885 heartbeat IPC: 1.50365 cumulative IPC: 1.44791 (Simulation time: 0 hr 51 min 28 sec) 
Heartbeat CPU 0 instructions: 740000000 cycles: 290500692 heartbeat IPC: 1.50358 cumulative IPC: 1.45015 (Simulation time: 0 hr 51 min 55 sec) 
Heartbeat CPU 0 instructions: 750000003 cycles: 297154252 heartbeat IPC: 1.50296 cumulative IPC: 1.45219 (Simulation time: 0 hr 52 min 33 sec) 
Heartbeat CPU 0 instructions: 760000000 cycles: 303804446 heartbeat IPC: 1.50372 cumulative IPC: 1.4541 (Simulation time: 0 hr 53 min 6 sec) 
Heartbeat CPU 0 instructions: 770000000 cycles: 310454120 heartbeat IPC: 1.50383 cumulative IPC: 1.45589 (Simulation time: 0 hr 53 min 55 sec) 
Heartbeat CPU 0 instructions: 780000002 cycles: 317104142 heartbeat IPC: 1.50375 cumulative IPC: 1.45754 (Simulation time: 0 hr 54 min 28 sec) 
Heartbeat CPU 0 instructions: 790000002 cycles: 323753478 heartbeat IPC: 1.50391 cumulative IPC: 1.45909 (Simulation time: 0 hr 55 min 17 sec) 
Heartbeat CPU 0 instructions: 800000002 cycles: 330403599 heartbeat IPC: 1.50373 cumulative IPC: 1.46054 (Simulation time: 0 hr 56 min 5 sec) 
Heartbeat CPU 0 instructions: 810000003 cycles: 337052786 heartbeat IPC: 1.50394 cumulative IPC: 1.4619 (Simulation time: 0 hr 56 min 50 sec) 
Heartbeat CPU 0 instructions: 820000003 cycles: 343702979 heartbeat IPC: 1.50372 cumulative IPC: 1.46317 (Simulation time: 0 hr 57 min 17 sec) 
Heartbeat CPU 0 instructions: 830000003 cycles: 350352126 heartbeat IPC: 1.50395 cumulative IPC: 1.46438 (Simulation time: 0 hr 57 min 44 sec) 
Heartbeat CPU 0 instructions: 840000004 cycles: 357002338 heartbeat IPC: 1.50371 cumulative IPC: 1.4655 (Simulation time: 0 hr 58 min 11 sec) 
Heartbeat CPU 0 instructions: 850000004 cycles: 363651519 heartbeat IPC: 1.50394 cumulative IPC: 1.46657 (Simulation time: 0 hr 58 min 39 sec) 
Heartbeat CPU 0 instructions: 860000004 cycles: 370301642 heartbeat IPC: 1.50373 cumulative IPC: 1.46758 (Simulation time: 0 hr 59 min 18 sec) 
Heartbeat CPU 0 instructions: 870000001 cycles: 376950819 heartbeat IPC: 1.50395 cumulative IPC: 1.46854 (Simulation time: 1 hr 0 min 5 sec) 
Heartbeat CPU 0 instructions: 880000000 cycles: 383601074 heartbeat IPC: 1.5037 cumulative IPC: 1.46945 (Simulation time: 1 hr 0 min 47 sec) 
Heartbeat CPU 0 instructions: 890000001 cycles: 390250167 heartbeat IPC: 1.50396 cumulative IPC: 1.47031 (Simulation time: 1 hr 1 min 35 sec) 
Heartbeat CPU 0 instructions: 900000002 cycles: 396900370 heartbeat IPC: 1.50371 cumulative IPC: 1.47113 (Simulation time: 1 hr 2 min 23 sec) 
Heartbeat CPU 0 instructions: 910000000 cycles: 403549561 heartbeat IPC: 1.50394 cumulative IPC: 1.47191 (Simulation time: 1 hr 3 min 12 sec) 
Heartbeat CPU 0 instructions: 920000001 cycles: 410199929 heartbeat IPC: 1.50368 cumulative IPC: 1.47265 (Simulation time: 1 hr 3 min 45 sec) 
Heartbeat CPU 0 instructions: 930000003 cycles: 416849107 heartbeat IPC: 1.50395 cumulative IPC: 1.47336 (Simulation time: 1 hr 4 min 12 sec) 
Heartbeat CPU 0 instructions: 940000002 cycles: 423499301 heartbeat IPC: 1.50372 cumulative IPC: 1.47404 (Simulation time: 1 hr 4 min 39 sec) 
Heartbeat CPU 0 instructions: 950000000 cycles: 430148920 heartbeat IPC: 1.50385 cumulative IPC: 1.47469 (Simulation time: 1 hr 5 min 7 sec) 
Heartbeat CPU 0 instructions: 960000004 cycles: 436798658 heartbeat IPC: 1.50382 cumulative IPC: 1.47531 (Simulation time: 1 hr 5 min 43 sec) 
Heartbeat CPU 0 instructions: 970000000 cycles: 443448576 heartbeat IPC: 1.50378 cumulative IPC: 1.47591 (Simulation time: 1 hr 6 min 28 sec) 
Heartbeat CPU 0 instructions: 980000004 cycles: 450097963 heartbeat IPC: 1.5039 cumulative IPC: 1.47648 (Simulation time: 1 hr 6 min 55 sec) 
Heartbeat CPU 0 instructions: 990000001 cycles: 456748157 heartbeat IPC: 1.50372 cumulative IPC: 1.47702 (Simulation time: 1 hr 7 min 42 sec) 
Heartbeat CPU 0 instructions: 1000000000 cycles: 463397305 heartbeat IPC: 1.50395 cumulative IPC: 1.47755 (Simulation time: 1 hr 8 min 30 sec) 
Heartbeat CPU 0 instructions: 1010000002 cycles: 470047515 heartbeat IPC: 1.50371 cumulative IPC: 1.47806 (Simulation time: 1 hr 9 min 5 sec) 
Heartbeat CPU 0 instructions: 1020000002 cycles: 476696691 heartbeat IPC: 1.50395 cumulative IPC: 1.47855 (Simulation time: 1 hr 9 min 51 sec) 
Heartbeat CPU 0 instructions: 1030000002 cycles: 483346820 heartbeat IPC: 1.50373 cumulative IPC: 1.47901 (Simulation time: 1 hr 10 min 18 sec) 
Heartbeat CPU 0 instructions: 1040000001 cycles: 489996057 heartbeat IPC: 1.50393 cumulative IPC: 1.47947 (Simulation time: 1 hr 10 min 47 sec) 
Heartbeat CPU 0 instructions: 1050000003 cycles: 496646252 heartbeat IPC: 1.50372 cumulative IPC: 1.4799 (Simulation time: 1 hr 11 min 19 sec) 
Heartbeat CPU 0 instructions: 1060000003 cycles: 503295339 heartbeat IPC: 1.50397 cumulative IPC: 1.48033 (Simulation time: 1 hr 11 min 52 sec) 
Heartbeat CPU 0 instructions: 1070000000 cycles: 509945548 heartbeat IPC: 1.50371 cumulative IPC: 1.48073 (Simulation time: 1 hr 12 min 39 sec) 
Heartbeat CPU 0 instructions: 1080000004 cycles: 516594792 heartbeat IPC: 1.50393 cumulative IPC: 1.48112 (Simulation time: 1 hr 13 min 14 sec) 
Heartbeat CPU 0 instructions: 1090000004 cycles: 523244915 heartbeat IPC: 1.50373 cumulative IPC: 1.4815 (Simulation time: 1 hr 13 min 47 sec) 
Heartbeat CPU 0 instructions: 1100000001 cycles: 529894092 heartbeat IPC: 1.50395 cumulative IPC: 1.48187 (Simulation time: 1 hr 14 min 36 sec) 
Heartbeat CPU 0 instructions: 1110000000 cycles: 536544286 heartbeat IPC: 1.50372 cumulative IPC: 1.48222 (Simulation time: 1 hr 15 min 19 sec) 
Heartbeat CPU 0 instructions: 1120000003 cycles: 543193388 heartbeat IPC: 1.50396 cumulative IPC: 1.48257 (Simulation time: 1 hr 15 min 47 sec) 
Heartbeat CPU 0 instructions: 1130000002 cycles: 549843643 heartbeat IPC: 1.5037 cumulative IPC: 1.4829 (Simulation time: 1 hr 16 min 36 sec) 
Heartbeat CPU 0 instructions: 1140000000 cycles: 556493162 heartbeat IPC: 1.50387 cumulative IPC: 1.48322 (Simulation time: 1 hr 17 min 23 sec) 
Heartbeat CPU 0 instructions: 1150000002 cycles: 563142948 heartbeat IPC: 1.50381 cumulative IPC: 1.48353 (Simulation time: 1 hr 18 min 1 sec) 
Heartbeat CPU 0 instructions: 1160000004 cycles: 569792943 heartbeat IPC: 1.50376 cumulative IPC: 1.48384 (Simulation time: 1 hr 18 min 45 sec) 
Heartbeat CPU 0 instructions: 1170000003 cycles: 576442291 heartbeat IPC: 1.50391 cumulative IPC: 1.48413 (Simulation time: 1 hr 19 min 32 sec) 
Heartbeat CPU 0 instructions: 1180000000 cycles: 583092500 heartbeat IPC: 1.50371 cumulative IPC: 1.48442 (Simulation time: 1 hr 20 min 9 sec) 
Heartbeat CPU 0 instructions: 1190000000 cycles: 589741676 heartbeat IPC: 1.50395 cumulative IPC: 1.4847 (Simulation time: 1 hr 20 min 36 sec) 
Heartbeat CPU 0 instructions: 1200000000 cycles: 596391805 heartbeat IPC: 1.50373 cumulative IPC: 1.48496 (Simulation time: 1 hr 21 min 4 sec) 
Heartbeat CPU 0 instructions: 1210000004 cycles: 603041236 heartbeat IPC: 1.50389 cumulative IPC: 1.48523 (Simulation time: 1 hr 21 min 31 sec) 
Heartbeat CPU 0 instructions: 1220000001 cycles: 609691430 heartbeat IPC: 1.50372 cumulative IPC: 1.48548 (Simulation time: 1 hr 21 min 58 sec) 
Heartbeat CPU 0 instructions: 1230000001 cycles: 616340516 heartbeat IPC: 1.50397 cumulative IPC: 1.48573 (Simulation time: 1 hr 22 min 25 sec) 
Heartbeat CPU 0 instructions: 1240000003 cycles: 622990726 heartbeat IPC: 1.50371 cumulative IPC: 1.48597 (Simulation time: 1 hr 22 min 54 sec) 
Heartbeat CPU 0 instructions: 1250000002 cycles: 629639964 heartbeat IPC: 1.50393 cumulative IPC: 1.48621 (Simulation time: 1 hr 23 min 37 sec) 
Heartbeat CPU 0 instructions: 1260000002 cycles: 636290093 heartbeat IPC: 1.50373 cumulative IPC: 1.48644 (Simulation time: 1 hr 24 min 23 sec) 
Heartbeat CPU 0 instructions: 1270000003 cycles: 642939272 heartbeat IPC: 1.50395 cumulative IPC: 1.48666 (Simulation time: 1 hr 25 min 12 sec) 
Heartbeat CPU 0 instructions: 1280000003 cycles: 649589464 heartbeat IPC: 1.50372 cumulative IPC: 1.48688 (Simulation time: 1 hr 25 min 57 sec) 
Heartbeat CPU 0 instructions: 1290000003 cycles: 656238612 heartbeat IPC: 1.50395 cumulative IPC: 1.48709 (Simulation time: 1 hr 26 min 24 sec) 
Heartbeat CPU 0 instructions: 1300000000 cycles: 662888821 heartbeat IPC: 1.50371 cumulative IPC: 1.4873 (Simulation time: 1 hr 26 min 50 sec) 
Heartbeat CPU 0 instructions: 1310000004 cycles: 669537916 heartbeat IPC: 1.50396 cumulative IPC: 1.4875 (Simulation time: 1 hr 27 min 17 sec) 
Heartbeat CPU 0 instructions: 1320000000 cycles: 676188125 heartbeat IPC: 1.50371 cumulative IPC: 1.4877 (Simulation time: 1 hr 27 min 46 sec) 
Heartbeat CPU 0 instructions: 1330000000 cycles: 682837791 heartbeat IPC: 1.50383 cumulative IPC: 1.48789 (Simulation time: 1 hr 28 min 31 sec) 
Heartbeat CPU 0 instructions: 1340000001 cycles: 689487469 heartbeat IPC: 1.50383 cumulative IPC: 1.48808 (Simulation time: 1 hr 29 min 19 sec) 
Heartbeat CPU 0 instructions: 1350000001 cycles: 696137371 heartbeat IPC: 1.50378 cumulative IPC: 1.48826 (Simulation time: 1 hr 30 min 7 sec) 
Heartbeat CPU 0 instructions: 1360000003 cycles: 702786854 heartbeat IPC: 1.50388 cumulative IPC: 1.48844 (Simulation time: 1 hr 30 min 55 sec) 
Heartbeat CPU 0 instructions: 1370000000 cycles: 709436975 heartbeat IPC: 1.50373 cumulative IPC: 1.48861 (Simulation time: 1 hr 31 min 42 sec) 
Heartbeat CPU 0 instructions: 1380000002 cycles: 716086221 heartbeat IPC: 1.50393 cumulative IPC: 1.48878 (Simulation time: 1 hr 32 min 13 sec) 
Heartbeat CPU 0 instructions: 1390000004 cycles: 722736416 heartbeat IPC: 1.50372 cumulative IPC: 1.48895 (Simulation time: 1 hr 32 min 45 sec) 
Heartbeat CPU 0 instructions: 1400000004 cycles: 729385502 heartbeat IPC: 1.50397 cumulative IPC: 1.48912 (Simulation time: 1 hr 33 min 17 sec) 
Heartbeat CPU 0 instructions: 1410000000 cycles: 736254632 heartbeat IPC: 1.45579 cumulative IPC: 1.48874 (Simulation time: 1 hr 33 min 46 sec) 
Heartbeat CPU 0 instructions: 1420000004 cycles: 743160026 heartbeat IPC: 1.44814 cumulative IPC: 1.48829 (Simulation time: 1 hr 34 min 23 sec) 
Heartbeat CPU 0 instructions: 1430000004 cycles: 750066512 heartbeat IPC: 1.44791 cumulative IPC: 1.48784 (Simulation time: 1 hr 35 min 11 sec) 
Heartbeat CPU 0 instructions: 1440000001 cycles: 756972873 heartbeat IPC: 1.44794 cumulative IPC: 1.48741 (Simulation time: 1 hr 35 min 59 sec) 
Heartbeat CPU 0 instructions: 1450000003 cycles: 763878072 heartbeat IPC: 1.44818 cumulative IPC: 1.48698 (Simulation time: 1 hr 36 min 47 sec) 
Heartbeat CPU 0 instructions: 1460000000 cycles: 770783748 heartbeat IPC: 1.44808 cumulative IPC: 1.48657 (Simulation time: 1 hr 37 min 25 sec) 
Heartbeat CPU 0 instructions: 1470000002 cycles: 777688589 heartbeat IPC: 1.44826 cumulative IPC: 1.48616 (Simulation time: 1 hr 37 min 53 sec) 
Heartbeat CPU 0 instructions: 1480000004 cycles: 784593502 heartbeat IPC: 1.44824 cumulative IPC: 1.48576 (Simulation time: 1 hr 38 min 22 sec) 
Heartbeat CPU 0 instructions: 1490000004 cycles: 791499266 heartbeat IPC: 1.44807 cumulative IPC: 1.48537 (Simulation time: 1 hr 38 min 50 sec) 
Heartbeat CPU 0 instructions: 1500000003 cycles: 798404173 heartbeat IPC: 1.44825 cumulative IPC: 1.48499 (Simulation time: 1 hr 39 min 18 sec) 
Heartbeat CPU 0 instructions: 1510000001 cycles: 805309029 heartbeat IPC: 1.44826 cumulative IPC: 1.48462 (Simulation time: 1 hr 39 min 47 sec) 
Heartbeat CPU 0 instructions: 1520000000 cycles: 812214751 heartbeat IPC: 1.44807 cumulative IPC: 1.48425 (Simulation time: 1 hr 40 min 15 sec) 
Heartbeat CPU 0 instructions: 1530000004 cycles: 819119712 heartbeat IPC: 1.44823 cumulative IPC: 1.48389 (Simulation time: 1 hr 40 min 44 sec) 
Heartbeat CPU 0 instructions: 1540000002 cycles: 826024545 heartbeat IPC: 1.44826 cumulative IPC: 1.48354 (Simulation time: 1 hr 41 min 12 sec) 
Heartbeat CPU 0 instructions: 1550000001 cycles: 832930270 heartbeat IPC: 1.44807 cumulative IPC: 1.4832 (Simulation time: 1 hr 41 min 40 sec) 
Heartbeat CPU 0 instructions: 1560000001 cycles: 839835130 heartbeat IPC: 1.44826 cumulative IPC: 1.48286 (Simulation time: 1 hr 42 min 9 sec) 
Heartbeat CPU 0 instructions: 1570000000 cycles: 846740056 heartbeat IPC: 1.44824 cumulative IPC: 1.48253 (Simulation time: 1 hr 42 min 38 sec) 
Heartbeat CPU 0 instructions: 1580000003 cycles: 853645594 heartbeat IPC: 1.44811 cumulative IPC: 1.4822 (Simulation time: 1 hr 43 min 6 sec) 
Heartbeat CPU 0 instructions: 1590000000 cycles: 860550706 heartbeat IPC: 1.4482 cumulative IPC: 1.48188 (Simulation time: 1 hr 43 min 34 sec) 
Heartbeat CPU 0 instructions: 1600000002 cycles: 867455759 heartbeat IPC: 1.44822 cumulative IPC: 1.48157 (Simulation time: 1 hr 44 min 12 sec) 
Heartbeat CPU 0 instructions: 1610000001 cycles: 874360827 heartbeat IPC: 1.44821 cumulative IPC: 1.48126 (Simulation time: 1 hr 45 min 0 sec) 
Heartbeat CPU 0 instructions: 1620000001 cycles: 881266316 heartbeat IPC: 1.44812 cumulative IPC: 1.48096 (Simulation time: 1 hr 45 min 28 sec) 
Heartbeat CPU 0 instructions: 1630000003 cycles: 888171279 heartbeat IPC: 1.44823 cumulative IPC: 1.48066 (Simulation time: 1 hr 45 min 55 sec) 
Heartbeat CPU 0 instructions: 1640000000 cycles: 895076192 heartbeat IPC: 1.44824 cumulative IPC: 1.48037 (Simulation time: 1 hr 46 min 21 sec) 
Heartbeat CPU 0 instructions: 1650000000 cycles: 901981853 heartbeat IPC: 1.44809 cumulative IPC: 1.48009 (Simulation time: 1 hr 46 min 47 sec) 
Heartbeat CPU 0 instructions: 1660000002 cycles: 908886751 heartbeat IPC: 1.44825 cumulative IPC: 1.47981 (Simulation time: 1 hr 47 min 13 sec) 
Heartbeat CPU 0 instructions: 1670000001 cycles: 915791716 heartbeat IPC: 1.44823 cumulative IPC: 1.47953 (Simulation time: 1 hr 47 min 40 sec) 
Heartbeat CPU 0 instructions: 1680000003 cycles: 922697384 heartbeat IPC: 1.44809 cumulative IPC: 1.47926 (Simulation time: 1 hr 48 min 6 sec) 
Heartbeat CPU 0 instructions: 1690000004 cycles: 929602290 heartbeat IPC: 1.44825 cumulative IPC: 1.47899 (Simulation time: 1 hr 48 min 32 sec) 
Heartbeat CPU 0 instructions: 1700000000 cycles: 936507127 heartbeat IPC: 1.44826 cumulative IPC: 1.47873 (Simulation time: 1 hr 48 min 58 sec) 
Heartbeat CPU 0 instructions: 1710000002 cycles: 943412871 heartbeat IPC: 1.44807 cumulative IPC: 1.47847 (Simulation time: 1 hr 49 min 24 sec) 
Heartbeat CPU 0 instructions: 1720000000 cycles: 950317794 heartbeat IPC: 1.44824 cumulative IPC: 1.47822 (Simulation time: 1 hr 49 min 51 sec) 
Heartbeat CPU 0 instructions: 1730000000 cycles: 957222705 heartbeat IPC: 1.44824 cumulative IPC: 1.47797 (Simulation time: 1 hr 50 min 17 sec) 
Heartbeat CPU 0 instructions: 1740000004 cycles: 964128380 heartbeat IPC: 1.44808 cumulative IPC: 1.47772 (Simulation time: 1 hr 50 min 43 sec) 
Heartbeat CPU 0 instructions: 1750000003 cycles: 971033251 heartbeat IPC: 1.44825 cumulative IPC: 1.47748 (Simulation time: 1 hr 51 min 9 sec) 
Heartbeat CPU 0 instructions: 1760000001 cycles: 977938141 heartbeat IPC: 1.44825 cumulative IPC: 1.47725 (Simulation time: 1 hr 51 min 35 sec) 
Heartbeat CPU 0 instructions: 1770000000 cycles: 984843698 heartbeat IPC: 1.44811 cumulative IPC: 1.47701 (Simulation time: 1 hr 52 min 1 sec) 
Heartbeat CPU 0 instructions: 1780000000 cycles: 991748821 heartbeat IPC: 1.4482 cumulative IPC: 1.47678 (Simulation time: 1 hr 52 min 27 sec) 
Heartbeat CPU 0 instructions: 1790000000 cycles: 998653674 heartbeat IPC: 1.44826 cumulative IPC: 1.47656 (Simulation time: 1 hr 52 min 53 sec) 
Heartbeat CPU 0 instructions: 1800000000 cycles: 1005558784 heartbeat IPC: 1.4482 cumulative IPC: 1.47634 (Simulation time: 1 hr 53 min 19 sec) 
Heartbeat CPU 0 instructions: 1810000000 cycles: 1012464334 heartbeat IPC: 1.44811 cumulative IPC: 1.47612 (Simulation time: 1 hr 53 min 46 sec) 
Heartbeat CPU 0 instructions: 1820000000 cycles: 1019369204 heartbeat IPC: 1.44825 cumulative IPC: 1.4759 (Simulation time: 1 hr 54 min 21 sec) 
Heartbeat CPU 0 instructions: 1830000001 cycles: 1026274095 heartbeat IPC: 1.44825 cumulative IPC: 1.47569 (Simulation time: 1 hr 54 min 48 sec) 
Heartbeat CPU 0 instructions: 1840000002 cycles: 1033179773 heartbeat IPC: 1.44808 cumulative IPC: 1.47548 (Simulation time: 1 hr 55 min 14 sec) 
Heartbeat CPU 0 instructions: 1850000000 cycles: 1040084680 heartbeat IPC: 1.44825 cumulative IPC: 1.47527 (Simulation time: 1 hr 55 min 42 sec) 
Heartbeat CPU 0 instructions: 1860000001 cycles: 1046989638 heartbeat IPC: 1.44823 cumulative IPC: 1.47507 (Simulation time: 1 hr 56 min 9 sec) 
Heartbeat CPU 0 instructions: 1870000002 cycles: 1053895539 heartbeat IPC: 1.44804 cumulative IPC: 1.47487 (Simulation time: 1 hr 56 min 37 sec) 
Heartbeat CPU 0 instructions: 1880000001 cycles: 1060800394 heartbeat IPC: 1.44826 cumulative IPC: 1.47467 (Simulation time: 1 hr 57 min 5 sec) 
Heartbeat CPU 0 instructions: 1890000003 cycles: 1067705252 heartbeat IPC: 1.44826 cumulative IPC: 1.47448 (Simulation time: 1 hr 57 min 34 sec) 
Heartbeat CPU 0 instructions: 1900000003 cycles: 1074610969 heartbeat IPC: 1.44808 cumulative IPC: 1.47429 (Simulation time: 1 hr 58 min 3 sec) 
Heartbeat CPU 0 instructions: 1910000000 cycles: 1081515916 heartbeat IPC: 1.44824 cumulative IPC: 1.4741 (Simulation time: 1 hr 58 min 32 sec) 
Heartbeat CPU 0 instructions: 1920000002 cycles: 1088420829 heartbeat IPC: 1.44824 cumulative IPC: 1.47391 (Simulation time: 1 hr 59 min 0 sec) 
Heartbeat CPU 0 instructions: 1930000001 cycles: 1095326500 heartbeat IPC: 1.44809 cumulative IPC: 1.47373 (Simulation time: 1 hr 59 min 29 sec) 
Heartbeat CPU 0 instructions: 1940000004 cycles: 1102231404 heartbeat IPC: 1.44825 cumulative IPC: 1.47355 (Simulation time: 1 hr 59 min 58 sec) 
Heartbeat CPU 0 instructions: 1950000002 cycles: 1109136334 heartbeat IPC: 1.44824 cumulative IPC: 1.47337 (Simulation time: 2 hr 0 min 27 sec) 
Heartbeat CPU 0 instructions: 1960000003 cycles: 1116041823 heartbeat IPC: 1.44812 cumulative IPC: 1.4732 (Simulation time: 2 hr 0 min 54 sec) 
Heartbeat CPU 0 instructions: 1970000003 cycles: 1122946924 heartbeat IPC: 1.4482 cumulative IPC: 1.47302 (Simulation time: 2 hr 1 min 22 sec) 
Heartbeat CPU 0 instructions: 1980000000 cycles: 1129851782 heartbeat IPC: 1.44826 cumulative IPC: 1.47285 (Simulation time: 2 hr 1 min 50 sec) 
Heartbeat CPU 0 instructions: 1990000004 cycles: 1136756894 heartbeat IPC: 1.4482 cumulative IPC: 1.47269 (Simulation time: 2 hr 2 min 17 sec) 
*** Reached end of trace: traces/607.cactuBSSN_s-4248B.champsimtrace.xz
Heartbeat CPU 0 instructions: 2000000001 cycles: 1143662452 heartbeat IPC: 1.44811 cumulative IPC: 1.47252 (Simulation time: 2 hr 2 min 44 sec) 
Finished CPU 0 instructions: 1500000004 cycles: 1018662577 cumulative IPC: 1.47252 (Simulation time: 2 hr 2 min 44 sec) 

ChampSim completed all CPUs

Region of Interest Statistics

CPU 0 cumulative IPC: 1.47252 instructions: 1500000004 cycles: 1018662577
cpu0_DTLB TOTAL     ACCESS:  180812443  HIT:  180790205  MISS:      22238
cpu0_DTLB LOAD      ACCESS:  157932389  HIT:  157910155  MISS:      22234
cpu0_DTLB RFO       ACCESS:   22880054  HIT:   22880050  MISS:          4
cpu0_DTLB PREFETCH  ACCESS:          0  HIT:          0  MISS:          0
cpu0_DTLB WRITEBACK ACCESS:          0  HIT:          0  MISS:          0
cpu0_DTLB TRANSLATION ACCESS:          0  HIT:          0  MISS:          0
cpu0_DTLB PREFETCH  REQUESTED:          0  ISSUED:          0  USEFUL:          0  USELESS:          0
cpu0_DTLB AVERAGE MISS LATENCY: 128.37 cycles
cpu0_ITLB TOTAL     ACCESS:  147710813  HIT:  147710779  MISS:         34
cpu0_ITLB LOAD      ACCESS:  147710813  HIT:  147710779  MISS:         34
cpu0_ITLB RFO       ACCESS:          0  HIT:          0  MISS:          0
cpu0_ITLB PREFETCH  ACCESS:          0  HIT:          0  MISS:          0
cpu0_ITLB WRITEBACK ACCESS:          0  HIT:          0  MISS:          0
cpu0_ITLB TRANSLATION ACCESS:          0  HIT:          0  MISS:          0
cpu0_ITLB PREFETCH  REQUESTED:          0  ISSUED:          0  USEFUL:          0  USELESS:          0
cpu0_ITLB AVERAGE MISS LATENCY: 148.971 cycles
cpu0_L1I TOTAL     ACCESS:       2624  HIT:       2409  MISS:        215
cpu0_L1I LOAD      ACCESS:       2624  HIT:       2409  MISS:        215
cpu0_L1I RFO       ACCESS:          0  HIT:          0  MISS:          0
cpu0_L1I PREFETCH  ACCESS:          0  HIT:          0  MISS:          0
cpu0_L1I WRITEBACK ACCESS:          0  HIT:          0  MISS:          0
cpu0_L1I TRANSLATION ACCESS:          0  HIT:          0  MISS:          0
cpu0_L1I PREFETCH  REQUESTED:          0  ISSUED:          0  USEFUL:          0  USELESS:          0
cpu0_L1I AVERAGE MISS LATENCY: 185.279 cycles
cpu0_STLB TOTAL     ACCESS:      22272  HIT:          2  MISS:      22270
cpu0_STLB LOAD      ACCESS:      22268  HIT:          2  MISS:      22266
cpu0_STLB RFO       ACCESS:          4  HIT:          0  MISS:          4
cpu0_STLB PREFETCH  ACCESS:          0  HIT:          0  MISS:          0
cpu0_STLB WRITEBACK ACCESS:          0  HIT:          0  MISS:          0
cpu0_STLB TRANSLATION ACCESS:          0  HIT:          0  MISS:          0
cpu0_STLB PREFETCH  REQUESTED:          0  ISSUED:          0  USEFUL:          0  USELESS:          0
cpu0_STLB AVERAGE MISS LATENCY: 119.412 cycles
cpu0_L1D TOTAL     ACCESS:  237655082  HIT:  236236632  MISS:    1418450
cpu0_L1D LOAD      ACCESS:  192117307  HIT:  190698914  MISS:    1418393
cpu0_L1D RFO       ACCESS:   45515509  HIT:   45515468  MISS:         41
cpu0_L1D PREFETCH  ACCESS:          0  HIT:          0  MISS:          0
cpu0_L1D WRITEBACK ACCESS:          0  HIT:          0  MISS:          0
cpu0_L1D TRANSLATION ACCESS:      22266  HIT:      22250  MISS:         16
cpu0_L1D PREFETCH  REQUESTED:          0  ISSUED:          0  USEFUL:          0  USELESS:          0
cpu0_L1D AVERAGE MISS LATENCY: 106.768 cycles
cpu0_L2C TOTAL     ACCESS:    1418781  HIT:        116  MISS:    1418665
cpu0_L2C LOAD      ACCESS:    1418608  HIT:          0  MISS:    1418608
cpu0_L2C RFO       ACCESS:         41  HIT:          5  MISS:         36
cpu0_L2C PREFETCH  ACCESS:          0  HIT:          0  MISS:          0
cpu0_L2C WRITEBACK ACCESS:        116  HIT:        111  MISS:          5
cpu0_L2C TRANSLATION ACCESS:         16  HIT:          0  MISS:         16
cpu0_L2C PREFETCH  REQUESTED:          0  ISSUED:          0  USEFUL:          0  USELESS:          0
cpu0_L2C AVERAGE MISS LATENCY: 95.7801 cycles
LLC TOTAL     ACCESS:    1418771  HIT:        106  MISS:    1418665
LLC LOAD      ACCESS:    1418608  HIT:          0  MISS:    1418608
LLC RFO       ACCESS:         36  HIT:          0  MISS:         36
LLC PREFETCH  ACCESS:          0  HIT:          0  MISS:          0
LLC WRITEBACK ACCESS:        111  HIT:        106  MISS:          5
LLC TRANSLATION ACCESS:         16  HIT:          0  MISS:         16
LLC PREFETCH  REQUESTED:          0  ISSUED:          0  USEFUL:          0  USELESS:          0
LLC AVERAGE MISS LATENCY: 74.7802 cycles
~~~~~~~~~~Reuse Distance Profiler output~~~~~~~~~~
0	22242736	21976000
1	28967872	25436144
2	18827440	14714816
3	47063376	29315424
4	34644672	34536224
5	10738656	6705920
6	8091872	7970368
7	12965696	8573776
8	1800192	1726304
9	23272432	18596928
10	8775280	8771664
11	11748416	1830144
12	4654784	4654736
13	11835648	3852528
14	12079056	11902032
15	5899040	5899024
16	2534592	2534464
17	7599584	7594448
18	3323040	2433568
19	22412512	20713984
20	4404960	3574432
21	8376352	8200480
22	1914400	1724576
23	198544	198496
24	73600	73584
25	528	496
26	32192	32144
27	84960	84912
28	27456	27392
29	240	208
30	384	368
31	112	96
32	80	64
33	32	32
34	64	64
35	16	16
36	32	32
37	32	32
38	0	0
39	0	0
40	16	0
41	48	32
42	96	80
43	64	16
44	80	64
45	48	48
46	32	0
47	48	32
48	0	0
49	32	32
50	0	0
51	32	0
52	48	16
53	48	32
54	64	48
55	16	16
56	0	0
57	0	0
58	0	0
59	16	0
60	0	0
61	0	0
62	32	32
63	32	16
64	32	32
66	0	0
68	32	32
70	80	80
72	16	16
74	16	16
76	16	0
78	80	32
80	64	32
82	16	16
84	32	16
86	16	16
88	48	32
90	16	16
92	16	16
94	32	32
96	32	32
98	32	32
100	16	16
102	16	16
104	0	0
106	0	0
108	0	0
110	16	0
112	0	0
114	0	0
116	0	0
118	0	0
120	0	0
122	16	16
124	16	16
126	0	0
128	0	0
132	32	16
136	48	32
140	0	0
144	32	16
148	64	64
152	0	0
156	16	16
160	16	16
164	0	0
168	0	0
172	0	0
176	0	0
180	32	0
184	16	16
188	0	0
192	32	16
196	0	0
200	32	0
204	0	0
208	16	16
212	16	16
216	0	0
220	16	0
224	0	0
228	0	0
232	0	0
236	0	0
240	0	0
244	0	0
248	0	0
252	0	0
256	48	48
264	0	0
272	16	16
280	16	16
288	16	0
296	0	0
304	0	0
312	16	16
320	0	0
328	16	16
336	0	0
344	0	0
352	16	16
360	0	0
368	16	16
376	0	0
384	0	0
392	32	16
400	32	16
408	0	0
416	16	16
424	16	16
432	0	0
440	16	16
448	0	0
456	0	0
464	0	0
472	0	0
480	16	16
488	16	16
496	0	0
504	0	0
512	32	16
528	0	0
544	16	16
560	16	16
576	0	0
592	0	0
608	0	0
624	0	0
640	0	0
656	0	0
672	0	0
688	0	0
704	0	0
720	0	0
736	0	0
752	0	0
768	0	0
784	0	0
800	0	0
816	0	0
832	0	0
848	16	16
864	0	0
880	0	0
896	0	0
912	0	0
928	16	16
944	0	0
960	0	0
976	0	0
992	16	16
1008	0	0
1024	0	0
1056	16	16
1088	0	0
1120	0	0
1152	0	0
1184	0	0
1216	16	16
1248	0	0
1280	0	0
1312	0	0
1344	16	16
1376	0	0
1408	0	0
1440	16	0
1472	0	0
1504	0	0
1536	0	0
1568	0	0
1600	0	0
1632	0	0
1664	0	0
1696	0	0
1728	0	0
1760	0	0
1792	0	0
1824	0	0
1856	0	0
1888	0	0
1920	0	0
1952	0	0
1984	0	0
2016	0	0
2048	0	0
2112	16	16
2176	0	0
2240	0	0
2304	0	0
2368	0	0
2432	0	0
2496	0	0
2560	0	0
2624	0	0
2688	0	0
2752	0	0
2816	16	16
2880	16	0
2944	0	0
3008	0	0
3072	0	0
3136	0	0
3200	0	0
3264	0	0
3328	0	0
3392	26944	26944
3456	0	0
3520	0	0
3584	0	0
3648	0	0
3712	0	0
3776	59216	59216
3840	0	0
3904	512	512
3968	0	0
4032	0	0
4096	0	0
4224	0	0
4352	0	0
4480	0	0
4608	0	0
4736	0	0
4864	0	0
4992	0	0
5120	0	0
5248	0	0
5376	0	0
5504	0	0
5632	0	0
5760	0	0
5888	0	0
6016	0	0
6144	0	0
6272	0	0
6400	0	0
6528	0	0
6656	0	0
6784	0	0
6912	0	0
7040	0	0
7168	0	0
7296	0	0
7424	0	0
7552	32	0
7680	0	0
7808	0	0
7936	0	0
8064	0	0
8192	0	0
8448	0	0
8704	0	0
8960	0	0
9216	0	0
9472	0	0
9728	0	0
9984	0	0
10240	48	0
10496	0	0
10752	0	0
11008	0	0
11264	0	0
11520	0	0
11776	0	0
12032	0	0
12288	0	0
12544	0	0
12800	0	0
13056	0	0
13312	0	0
13568	0	0
13824	0	0
14080	0	0
14336	0	0
14592	0	0
14848	0	0
15104	32	0
15360	0	0
15616	0	0
15872	0	0
16128	0	0
16384	0	0
16896	0	0
17408	0	0
17920	0	0
18432	16	0
18944	0	0
19456	0	0
19968	0	0
20480	16	0
20992	0	0
21504	0	0
22016	0	0
22528	0	0
23040	0	0
23552	0	0
24064	0	0
24576	0	0
25088	0	0
25600	0	0
26112	0	0
26624	0	0
27136	0	0
27648	0	0
28160	0	0
28672	0	0
29184	0	0
29696	0	0
30208	0	0
30720	0	0
31232	0	0
31744	0	0
32256	0	0
32768	0	0
33792	16	0
34816	0	0
35840	0	0
36864	0	0
37888	0	0
38912	0	0
39936	0	0
40960	0	0
41984	0	0
43008	0	0
44032	0	0
45056	0	0
46080	0	0
47104	0	0
48128	0	0
49152	0	0
50176	0	0
51200	0	0
52224	0	0
53248	0	0
54272	0	0
55296	0	0
56320	0	0
57344	0	0
58368	0	0
59392	0	0
60416	0	0
61440	0	0
62464	0	0
63488	0	0
64512	0	0
65536	0	0
67584	0	0
69632	0	0
71680	0	0
73728	0	0
75776	0	0
77824	0	0
79872	0	0
81920	0	0
83968	0	0
86016	0	0
88064	0	0
90112	0	0
92160	0	0
94208	0	0
96256	0	0
98304	0	0
100352	0	0
102400	0	0
104448	0	0
106496	0	0
108544	0	0
110592	0	0
112640	0	0
114688	0	0
116736	0	0
118784	0	0
120832	0	0
122880	0	0
124928	0	0
126976	0	0
129024	0	0
131072	0	0
135168	0	0
139264	0	0
143360	0	0
147456	0	0
151552	0	0
155648	0	0
159744	0	0
163840	0	0
167936	0	0
172032	0	0
176128	0	0
180224	0	0
184320	0	0
188416	0	0
192512	0	0
196608	0	0
200704	0	0
204800	0	0
208896	0	0
212992	0	0
217088	0	0
221184	0	0
225280	0	0
229376	0	0
233472	0	0
237568	0	0
241664	0	0
245760	0	0
249856	0	0
253952	0	0
258048	0	0
262144	0	0
270336	0	0
278528	0	0
286720	0	0
294912	0	0
303104	0	0
311296	0	0
319488	0	0
327680	0	0
335872	0	0
344064	0	0
352256	0	0
360448	0	0
368640	0	0
376832	0	0
385024	0	0
393216	0	0
401408	0	0
409600	0	0
417792	0	0
425984	0	0
434176	0	0
442368	0	0
450560	0	0
458752	0	0
466944	0	0
475136	0	0
483328	0	0
491520	0	0
499712	0	0
507904	0	0
516096	0	0
524288	0	0
540672	0	0
557056	0	0
573440	0	0
589824	0	0
606208	0	0
622592	0	0
638976	16	0
655360	0	0
671744	0	0
688128	0	0
704512	0	0
720896	0	0
737280	0	0
753664	0	0
770048	0	0
786432	0	0
802816	0	0
819200	0	0
835584	0	0
851968	0	0
868352	0	0
884736	0	0
901120	0	0
917504	0	0
933888	0	0
950272	0	0
966656	0	0
983040	0	0
999424	0	0
1015808	0	0
1032192	0	0
1048576	0	0
1081344	0	0
1114112	0	0
1146880	0	0
1179648	0	0
1212416	0	0
1245184	0	0
1277952	0	0
1310720	0	0
1343488	0	0
1376256	0	0
1409024	0	0
1441792	0	0
1474560	0	0
1507328	0	0
1540096	0	0
1572864	0	0
1605632	0	0
1638400	0	0
1671168	0	0
1703936	0	0
1736704	0	0
1769472	0	0
1802240	0	0
1835008	0	0
1867776	0	0
1900544	0	0
1933312	0	0
1966080	0	0
1998848	0	0
2031616	0	0
2064384	0	0
2097152	0	0
2162688	0	0
2228224	0	0
2293760	0	0
2359296	0	0
2424832	0	0
2490368	0	0
2555904	0	0
2621440	0	0
2686976	0	0
2752512	0	0
2818048	0	0
2883584	0	0
2949120	0	0
3014656	0	0
3080192	0	0
3145728	0	0
3211264	0	0
3276800	0	0
3342336	0	0
3407872	0	0
3473408	0	0
3538944	0	0
3604480	0	0
3670016	0	0
3735552	0	0
3801088	0	0
3866624	0	0
3932160	0	0
3997696	0	0
4063232	0	0
4128768	0	0
4194304	0	0
4325376	0	0
4456448	0	0
4587520	0	0
4718592	0	0
4849664	0	0
4980736	0	0
5111808	0	0
5242880	0	0
5373952	0	0
5505024	0	0
5636096	0	0
5767168	0	0
5898240	0	0
6029312	0	0
6160384	0	0
6291456	0	0
6422528	0	0
6553600	0	0
6684672	0	0
6815744	0	0
6946816	0	0
7077888	0	0
7208960	0	0
7340032	0	0
7471104	0	0
7602176	0	0
7733248	0	0
7864320	0	0
7995392	0	0
8126464	0	0
8257536	0	0
8388608	0	0
8650752	0	0
8912896	0	0
9175040	0	0
9437184	0	0
9699328	0	0
9961472	0	0
10223616	0	0
10485760	0	0
10747904	0	0
11010048	0	0
11272192	0	0
11534336	0	0
11796480	0	0
12058624	0	0
12320768	0	0
12582912	0	0
12845056	0	0
13107200	0	0
13369344	0	0
13631488	0	0
13893632	0	0
14155776	0	0
14417920	0	0
14680064	0	0
14942208	0	0
15204352	0	0
15466496	0	0
15728640	0	0
15990784	0	0
16252928	0	0
16515072	0	0
16777216	0	0
17301504	0	0
17825792	0	0
18350080	0	0
18874368	0	0
19398656	0	0
19922944	0	0
20447232	0	0
20971520	0	0
21495808	0	0
22020096	0	0
22544384	0	0
23068672	0	0
23592960	0	0
24117248	0	0
24641536	0	0
25165824	0	0
25690112	0	0
26214400	0	0
26738688	0	0
27262976	0	0
27787264	0	0
28311552	0	0
28835840	0	0
29360128	0	0
29884416	0	0
30408704	0	0
30932992	0	0
31457280	0	0
31981568	0	0
32505856	0	0
33030144	0	0
33554432	0	0
34603008	0	0
35651584	0	0
36700160	0	0
37748736	0	0
38797312	0	0
39845888	0	0
40894464	0	0
41943040	0	0
42991616	0	0
44040192	0	0
45088768	0	0
46137344	0	0
47185920	0	0
48234496	0	0
49283072	0	0
50331648	0	0
51380224	0	0
52428800	0	0
53477376	0	0
54525952	0	0
55574528	0	0
56623104	0	0
57671680	0	0
58720256	0	0
59768832	0	0
60817408	0	0
61865984	0	0
62914560	0	0
63963136	0	0
65011712	0	0
66060288	0	0
67108864	0	0
69206016	0	0
71303168	0	0
73400320	0	0
75497472	0	0
77594624	0	0
79691776	0	0
81788928	0	0
83886080	0	0
85983232	0	0
88080384	0	0
90177536	0	0
92274688	0	0
94371840	0	0
96468992	0	0
98566144	0	0
100663296	50896	50880
102760448	12896	12896
104857600	0	0
106954752	0	0
109051904	0	0
111149056	3616	3600
113246208	0	0
115343360	0	0
117440512	0	0
119537664	0	0
121634816	0	0
123731968	0	0
125829120	0	0
127926272	0	0
130023424	0	0
132120576	0	0
134217728	0	0
138412032	0	0
142606336	0	0
146800640	0	0
150994944	0	0
155189248	0	0
159383552	0	0
163577856	0	0
167772160	0	0
171966464	0	0
176160768	0	0
180355072	0	0
184549376	0	0
188743680	0	0
192937984	0	0
197132288	0	0
201326592	0	0
205520896	0	0
209715200	0	0
213909504	0	0
218103808	0	0
222298112	0	0
226492416	0	0
230686720	0	0
234881024	0	0
239075328	0	0
243269632	0	0
247463936	0	0
251658240	0	0
255852544	0	0
260046848	0	0
264241152	0	0
268435456	0	0
276824064	0	0
285212672	0	0
293601280	0	0
301989888	0	0
310378496	0	0
318767104	0	0
327155712	0	0
335544320	0	0
343932928	0	0
352321536	0	0
360710144	0	0
369098752	0	0
377487360	0	0
385875968	0	0
394264576	0	0
402653184	0	0
411041792	0	0
419430400	0	0
427819008	0	0
436207616	0	0
444596224	0	0
452984832	0	0
461373440	0	0
469762048	0	0
478150656	0	0
486539264	0	0
494927872	0	0
503316480	0	0
511705088	0	0
520093696	0	0
528482304	0	0
536870912	0	0
553648128	0	0
570425344	0	0
587202560	0	0
603979776	0	0
620756992	0	0
637534208	0	0
654311424	0	0
671088640	0	0
687865856	0	0
704643072	0	0
721420288	0	0
738197504	0	0
754974720	0	0
771751936	0	0
788529152	0	0
805306368	0	0
822083584	0	0
838860800	0	0
855638016	0	0
872415232	0	0
889192448	0	0
905969664	0	0
922746880	0	0
939524096	0	0
956301312	0	0
973078528	0	0
989855744	0	0
1006632960	0	0
1023410176	0	0
1040187392	0	0
1056964608	0	0
1073741824	0	0
1107296256	0	0
1140850688	0	0
1174405120	0	0
1207959552	0	0
1241513984	0	0
1275068416	0	0
1308622848	0	0
1342177280	0	0
1375731712	0	0
1409286144	0	0
1442840576	0	0
1476395008	0	0
1509949440	0	0
1543503872	0	0
1577058304	0	0
1610612736	0	0
1644167168	0	0
1677721600	0	0
1711276032	0	0
1744830464	0	0
1778384896	0	0
1811939328	0	0
1845493760	0	0
1879048192	0	0
1912602624	0	0
1946157056	0	0
1979711488	0	0
2013265920	0	0
2046820352	0	0
2080374784	0	0
2113929216	0	0
2147483648	0	0
2214592512	0	0
2281701376	0	0
2348810240	0	0
2415919104	0	0
2483027968	0	0
2550136832	0	0
2617245696	0	0
2684354560	0	0
2751463424	0	0
2818572288	0	0
2885681152	0	0
2952790016	0	0
3019898880	0	0
3087007744	0	0
3154116608	0	0
3221225472	0	0
3288334336	0	0
3355443200	0	0
3422552064	0	0
3489660928	0	0
3556769792	0	0
3623878656	0	0
3690987520	0	0
3758096384	0	0
3825205248	0	0
3892314112	0	0
3959422976	0	0
4026531840	0	0
4093640704	0	0
4160749568	0	0
4227858432	0	0
~~~~~~~~~~Reuse Distance Profiler output end~~~~~~~~~~

DRAM Statistics
 CHANNEL 0
 RQ ROW_BUFFER_HIT:    1240800  ROW_BUFFER_MISS:     177860
 DBUS AVG_CONGESTED_CYCLE:    3.73386
 WQ ROW_BUFFER_HIT:          0  ROW_BUFFER_MISS:        111  FULL:          0


CPU 0 Branch Prediction Accuracy: 87.3733% MPKI: 15.3025 Average ROB Occupancy at Mispredict: 43.0574
Branch type MPKI
BRANCH_DIRECT_JUMP: 2.6e-05
BRANCH_INDIRECT: 1.06667e-05
BRANCH_CONDITIONAL: 15.3024
BRANCH_DIRECT_CALL: 4.93333e-05
BRANCH_INDIRECT_CALL: 2e-06
BRANCH_RETURN: 4.53333e-05

