
*** ChampSim Multicore Out-of-Order Simulator ***

Warmup Instructions: 500000000
Simulation Instructions: 1500000000
Number of CPUs: 1
Off-chip DRAM Size: 4 GiB Channels: 1 Width: 64-bit Data Rate: 3200 MT/s

VirtualMemory physical capacity: 8588881920 num_ppages: 2096895
VirtualMemory page size: 4096 log2_page_size: 12

CPU 0 runs traces/607.cactuBSSN_s-3477B.champsimtrace.xz
CPU 0 Bimodal branch predictor
Basic BTB sets: 1024 ways: 8 indirect buffer size: 4096 RAS size: 64
Initializing LRU.
Initializing LRU.
Initializing LRU.
Initializing LRU.
Initializing rdLRU.
Initializing LRU.
Initializing LRU.
Heartbeat CPU 0 instructions: 10000003 cycles: 3741583 heartbeat IPC: 2.67267 cumulative IPC: 2.67267 (Simulation time: 0 hr 1 min 19 sec) 
Heartbeat CPU 0 instructions: 20000002 cycles: 7481865 heartbeat IPC: 2.67359 cumulative IPC: 2.67313 (Simulation time: 0 hr 2 min 30 sec) 
Heartbeat CPU 0 instructions: 30000003 cycles: 11223559 heartbeat IPC: 2.67259 cumulative IPC: 2.67295 (Simulation time: 0 hr 4 min 10 sec) 
Heartbeat CPU 0 instructions: 40000004 cycles: 14965167 heartbeat IPC: 2.67265 cumulative IPC: 2.67287 (Simulation time: 0 hr 5 min 37 sec) 
Heartbeat CPU 0 instructions: 50000000 cycles: 18706520 heartbeat IPC: 2.67283 cumulative IPC: 2.67286 (Simulation time: 0 hr 6 min 49 sec) 
Heartbeat CPU 0 instructions: 60000000 cycles: 22448171 heartbeat IPC: 2.67262 cumulative IPC: 2.67282 (Simulation time: 0 hr 7 min 52 sec) 
Heartbeat CPU 0 instructions: 70000001 cycles: 26190152 heartbeat IPC: 2.67238 cumulative IPC: 2.67276 (Simulation time: 0 hr 8 min 55 sec) 
Heartbeat CPU 0 instructions: 80000002 cycles: 29931396 heartbeat IPC: 2.67291 cumulative IPC: 2.67278 (Simulation time: 0 hr 9 min 59 sec) 
Heartbeat CPU 0 instructions: 90000000 cycles: 33673161 heartbeat IPC: 2.67253 cumulative IPC: 2.67275 (Simulation time: 0 hr 11 min 19 sec) 
Heartbeat CPU 0 instructions: 100000001 cycles: 37414700 heartbeat IPC: 2.6727 cumulative IPC: 2.67275 (Simulation time: 0 hr 13 min 9 sec) 
Heartbeat CPU 0 instructions: 110000004 cycles: 41155677 heartbeat IPC: 2.6731 cumulative IPC: 2.67278 (Simulation time: 0 hr 14 min 58 sec) 
Heartbeat CPU 0 instructions: 120000001 cycles: 44897557 heartbeat IPC: 2.67245 cumulative IPC: 2.67275 (Simulation time: 0 hr 16 min 6 sec) 
Heartbeat CPU 0 instructions: 130000003 cycles: 48637222 heartbeat IPC: 2.67404 cumulative IPC: 2.67285 (Simulation time: 0 hr 17 min 13 sec) 
Heartbeat CPU 0 instructions: 140000001 cycles: 52379256 heartbeat IPC: 2.67234 cumulative IPC: 2.67281 (Simulation time: 0 hr 18 min 22 sec) 
Heartbeat CPU 0 instructions: 150000001 cycles: 56120398 heartbeat IPC: 2.67298 cumulative IPC: 2.67282 (Simulation time: 0 hr 19 min 29 sec) 
Heartbeat CPU 0 instructions: 160000002 cycles: 59861469 heartbeat IPC: 2.67303 cumulative IPC: 2.67284 (Simulation time: 0 hr 20 min 39 sec) 
Heartbeat CPU 0 instructions: 170000002 cycles: 63603052 heartbeat IPC: 2.67267 cumulative IPC: 2.67283 (Simulation time: 0 hr 21 min 47 sec) 
Heartbeat CPU 0 instructions: 180000003 cycles: 67344726 heartbeat IPC: 2.6726 cumulative IPC: 2.67282 (Simulation time: 0 hr 23 min 31 sec) 
Heartbeat CPU 0 instructions: 190000000 cycles: 71086276 heartbeat IPC: 2.67269 cumulative IPC: 2.67281 (Simulation time: 0 hr 24 min 44 sec) 
Heartbeat CPU 0 instructions: 200000003 cycles: 74827974 heartbeat IPC: 2.67258 cumulative IPC: 2.6728 (Simulation time: 0 hr 25 min 51 sec) 
Heartbeat CPU 0 instructions: 210000002 cycles: 78568838 heartbeat IPC: 2.67318 cumulative IPC: 2.67282 (Simulation time: 0 hr 26 min 58 sec) 
Heartbeat CPU 0 instructions: 220000001 cycles: 82310660 heartbeat IPC: 2.67249 cumulative IPC: 2.6728 (Simulation time: 0 hr 28 min 13 sec) 
Heartbeat CPU 0 instructions: 230000000 cycles: 86051989 heartbeat IPC: 2.67285 cumulative IPC: 2.6728 (Simulation time: 0 hr 30 min 6 sec) 
Heartbeat CPU 0 instructions: 240000002 cycles: 89793309 heartbeat IPC: 2.67285 cumulative IPC: 2.67281 (Simulation time: 0 hr 31 min 42 sec) 
Heartbeat CPU 0 instructions: 250000004 cycles: 93535073 heartbeat IPC: 2.67254 cumulative IPC: 2.67279 (Simulation time: 0 hr 32 min 46 sec) 
Heartbeat CPU 0 instructions: 260000002 cycles: 97276497 heartbeat IPC: 2.67278 cumulative IPC: 2.67279 (Simulation time: 0 hr 34 min 11 sec) 
Heartbeat CPU 0 instructions: 270000003 cycles: 101017754 heartbeat IPC: 2.6729 cumulative IPC: 2.6728 (Simulation time: 0 hr 35 min 15 sec) 
Heartbeat CPU 0 instructions: 280000002 cycles: 104759477 heartbeat IPC: 2.67257 cumulative IPC: 2.67279 (Simulation time: 0 hr 36 min 19 sec) 
Heartbeat CPU 0 instructions: 290000002 cycles: 108501265 heartbeat IPC: 2.67252 cumulative IPC: 2.67278 (Simulation time: 0 hr 37 min 35 sec) 
Heartbeat CPU 0 instructions: 300000001 cycles: 112242609 heartbeat IPC: 2.67284 cumulative IPC: 2.67278 (Simulation time: 0 hr 38 min 42 sec) 
Heartbeat CPU 0 instructions: 310000000 cycles: 115984468 heartbeat IPC: 2.67247 cumulative IPC: 2.67277 (Simulation time: 0 hr 39 min 47 sec) 
Heartbeat CPU 0 instructions: 320000000 cycles: 119725576 heartbeat IPC: 2.673 cumulative IPC: 2.67278 (Simulation time: 0 hr 40 min 50 sec) 
Heartbeat CPU 0 instructions: 330000000 cycles: 123467112 heartbeat IPC: 2.6727 cumulative IPC: 2.67278 (Simulation time: 0 hr 42 min 19 sec) 
Heartbeat CPU 0 instructions: 340000002 cycles: 127208684 heartbeat IPC: 2.67267 cumulative IPC: 2.67277 (Simulation time: 0 hr 43 min 44 sec) 
Heartbeat CPU 0 instructions: 350000000 cycles: 130950057 heartbeat IPC: 2.67282 cumulative IPC: 2.67277 (Simulation time: 0 hr 45 min 37 sec) 
Heartbeat CPU 0 instructions: 360000001 cycles: 134691819 heartbeat IPC: 2.67254 cumulative IPC: 2.67277 (Simulation time: 0 hr 47 min 30 sec) 
Heartbeat CPU 0 instructions: 370000001 cycles: 138433219 heartbeat IPC: 2.6728 cumulative IPC: 2.67277 (Simulation time: 0 hr 49 min 23 sec) 
Heartbeat CPU 0 instructions: 380000003 cycles: 142174656 heartbeat IPC: 2.67277 cumulative IPC: 2.67277 (Simulation time: 0 hr 51 min 15 sec) 
Heartbeat CPU 0 instructions: 390000004 cycles: 145916793 heartbeat IPC: 2.67227 cumulative IPC: 2.67276 (Simulation time: 0 hr 53 min 6 sec) 
Heartbeat CPU 0 instructions: 400000000 cycles: 149657705 heartbeat IPC: 2.67314 cumulative IPC: 2.67277 (Simulation time: 0 hr 54 min 29 sec) 
Heartbeat CPU 0 instructions: 410000002 cycles: 153399234 heartbeat IPC: 2.6727 cumulative IPC: 2.67276 (Simulation time: 0 hr 55 min 31 sec) 
Heartbeat CPU 0 instructions: 420000000 cycles: 157140859 heartbeat IPC: 2.67264 cumulative IPC: 2.67276 (Simulation time: 0 hr 56 min 33 sec) 
Heartbeat CPU 0 instructions: 430000001 cycles: 160882350 heartbeat IPC: 2.67273 cumulative IPC: 2.67276 (Simulation time: 0 hr 57 min 34 sec) 
Heartbeat CPU 0 instructions: 440000001 cycles: 164623939 heartbeat IPC: 2.67266 cumulative IPC: 2.67276 (Simulation time: 0 hr 58 min 37 sec) 
Heartbeat CPU 0 instructions: 450000003 cycles: 168365690 heartbeat IPC: 2.67255 cumulative IPC: 2.67275 (Simulation time: 0 hr 59 min 39 sec) 
Heartbeat CPU 0 instructions: 460000002 cycles: 172107098 heartbeat IPC: 2.67279 cumulative IPC: 2.67275 (Simulation time: 1 hr 0 min 44 sec) 
Heartbeat CPU 0 instructions: 470000002 cycles: 175848774 heartbeat IPC: 2.6726 cumulative IPC: 2.67275 (Simulation time: 1 hr 2 min 34 sec) 
Heartbeat CPU 0 instructions: 480000002 cycles: 179590046 heartbeat IPC: 2.67289 cumulative IPC: 2.67275 (Simulation time: 1 hr 4 min 27 sec) 
Heartbeat CPU 0 instructions: 490000001 cycles: 183331632 heartbeat IPC: 2.67266 cumulative IPC: 2.67275 (Simulation time: 1 hr 6 min 19 sec) 
Heartbeat CPU 0 instructions: 500000001 cycles: 187073482 heartbeat IPC: 2.67247 cumulative IPC: 2.67275 (Simulation time: 1 hr 7 min 52 sec) 

Warmup complete CPU 0 instructions: 500000001 cycles: 187073482 (Simulation time: 1 hr 7 min 52 sec) 

Heartbeat CPU 0 instructions: 510000002 cycles: 193664688 heartbeat IPC: 1.51717 cumulative IPC: 1.51717 (Simulation time: 1 hr 9 min 9 sec) 
Heartbeat CPU 0 instructions: 520000000 cycles: 200013304 heartbeat IPC: 1.57515 cumulative IPC: 1.54562 (Simulation time: 1 hr 10 min 39 sec) 
Heartbeat CPU 0 instructions: 530000000 cycles: 206348162 heartbeat IPC: 1.57857 cumulative IPC: 1.55645 (Simulation time: 1 hr 12 min 36 sec) 
Heartbeat CPU 0 instructions: 540000003 cycles: 212685647 heartbeat IPC: 1.57791 cumulative IPC: 1.56176 (Simulation time: 1 hr 14 min 26 sec) 
Heartbeat CPU 0 instructions: 550000002 cycles: 219024851 heartbeat IPC: 1.57748 cumulative IPC: 1.56488 (Simulation time: 1 hr 16 min 41 sec) 
Heartbeat CPU 0 instructions: 560000000 cycles: 225386127 heartbeat IPC: 1.57201 cumulative IPC: 1.56606 (Simulation time: 1 hr 18 min 1 sec) 
Heartbeat CPU 0 instructions: 570000001 cycles: 231717160 heartbeat IPC: 1.57952 cumulative IPC: 1.56797 (Simulation time: 1 hr 19 min 21 sec) 
Heartbeat CPU 0 instructions: 580000003 cycles: 238055216 heartbeat IPC: 1.57777 cumulative IPC: 1.56919 (Simulation time: 1 hr 20 min 40 sec) 
Heartbeat CPU 0 instructions: 590000003 cycles: 244390799 heartbeat IPC: 1.57839 cumulative IPC: 1.57021 (Simulation time: 1 hr 21 min 58 sec) 
Heartbeat CPU 0 instructions: 600000001 cycles: 250742971 heartbeat IPC: 1.57426 cumulative IPC: 1.57061 (Simulation time: 1 hr 23 min 18 sec) 
Heartbeat CPU 0 instructions: 610000002 cycles: 257090594 heartbeat IPC: 1.57539 cumulative IPC: 1.57104 (Simulation time: 1 hr 25 min 2 sec) 
Heartbeat CPU 0 instructions: 620000001 cycles: 263440000 heartbeat IPC: 1.57495 cumulative IPC: 1.57137 (Simulation time: 1 hr 26 min 55 sec) 
Heartbeat CPU 0 instructions: 630000003 cycles: 269774493 heartbeat IPC: 1.57866 cumulative IPC: 1.57193 (Simulation time: 1 hr 28 min 32 sec) 
Heartbeat CPU 0 instructions: 640000002 cycles: 276122645 heartbeat IPC: 1.57526 cumulative IPC: 1.57217 (Simulation time: 1 hr 30 min 36 sec) 
Heartbeat CPU 0 instructions: 650000002 cycles: 282464813 heartbeat IPC: 1.57675 cumulative IPC: 1.57247 (Simulation time: 1 hr 32 min 48 sec) 
Heartbeat CPU 0 instructions: 660000001 cycles: 289057241 heartbeat IPC: 1.51689 cumulative IPC: 1.56888 (Simulation time: 1 hr 34 min 50 sec) 
Heartbeat CPU 0 instructions: 670000003 cycles: 295398490 heartbeat IPC: 1.57698 cumulative IPC: 1.56935 (Simulation time: 1 hr 36 min 37 sec) 
Heartbeat CPU 0 instructions: 680000001 cycles: 301742544 heartbeat IPC: 1.57628 cumulative IPC: 1.56973 (Simulation time: 1 hr 38 min 47 sec) 
Heartbeat CPU 0 instructions: 690000004 cycles: 308079535 heartbeat IPC: 1.57804 cumulative IPC: 1.57017 (Simulation time: 1 hr 40 min 42 sec) 
Heartbeat CPU 0 instructions: 700000003 cycles: 314407443 heartbeat IPC: 1.5803 cumulative IPC: 1.57067 (Simulation time: 1 hr 42 min 52 sec) 
Heartbeat CPU 0 instructions: 710000000 cycles: 320744730 heartbeat IPC: 1.57796 cumulative IPC: 1.57102 (Simulation time: 1 hr 44 min 41 sec) 
Heartbeat CPU 0 instructions: 720000002 cycles: 327077648 heartbeat IPC: 1.57905 cumulative IPC: 1.57138 (Simulation time: 1 hr 46 min 5 sec) 
Heartbeat CPU 0 instructions: 730000002 cycles: 333420334 heartbeat IPC: 1.57662 cumulative IPC: 1.57161 (Simulation time: 1 hr 47 min 22 sec) 
Heartbeat CPU 0 instructions: 740000003 cycles: 339754094 heartbeat IPC: 1.57884 cumulative IPC: 1.57191 (Simulation time: 1 hr 48 min 41 sec) 
Heartbeat CPU 0 instructions: 750000003 cycles: 346092851 heartbeat IPC: 1.5776 cumulative IPC: 1.57214 (Simulation time: 1 hr 49 min 58 sec) 
Heartbeat CPU 0 instructions: 760000002 cycles: 352427451 heartbeat IPC: 1.57863 cumulative IPC: 1.57238 (Simulation time: 1 hr 51 min 14 sec) 
Heartbeat CPU 0 instructions: 770000003 cycles: 358775800 heartbeat IPC: 1.57521 cumulative IPC: 1.57249 (Simulation time: 1 hr 52 min 33 sec) 
Heartbeat CPU 0 instructions: 780000001 cycles: 365121977 heartbeat IPC: 1.57575 cumulative IPC: 1.57261 (Simulation time: 1 hr 54 min 32 sec) 
Heartbeat CPU 0 instructions: 790000004 cycles: 371457731 heartbeat IPC: 1.57834 cumulative IPC: 1.5728 (Simulation time: 1 hr 56 min 22 sec) 
Heartbeat CPU 0 instructions: 800000002 cycles: 377802744 heartbeat IPC: 1.57604 cumulative IPC: 1.57291 (Simulation time: 1 hr 57 min 41 sec) 
Heartbeat CPU 0 instructions: 810000000 cycles: 384372824 heartbeat IPC: 1.52205 cumulative IPC: 1.57122 (Simulation time: 1 hr 59 min 2 sec) 
Heartbeat CPU 0 instructions: 820000000 cycles: 390710909 heartbeat IPC: 1.57776 cumulative IPC: 1.57142 (Simulation time: 2 hr 0 min 28 sec) 
Heartbeat CPU 0 instructions: 830000000 cycles: 397042139 heartbeat IPC: 1.57947 cumulative IPC: 1.57166 (Simulation time: 2 hr 2 min 43 sec) 
Heartbeat CPU 0 instructions: 840000001 cycles: 403387043 heartbeat IPC: 1.57607 cumulative IPC: 1.57179 (Simulation time: 2 hr 4 min 44 sec) 
Heartbeat CPU 0 instructions: 850000000 cycles: 409732780 heartbeat IPC: 1.57586 cumulative IPC: 1.57191 (Simulation time: 2 hr 7 min 0 sec) 
Heartbeat CPU 0 instructions: 860000002 cycles: 416080548 heartbeat IPC: 1.57536 cumulative IPC: 1.572 (Simulation time: 2 hr 9 min 17 sec) 
Heartbeat CPU 0 instructions: 870000002 cycles: 422427236 heartbeat IPC: 1.57562 cumulative IPC: 1.5721 (Simulation time: 2 hr 11 min 20 sec) 
Heartbeat CPU 0 instructions: 880000000 cycles: 428777392 heartbeat IPC: 1.57476 cumulative IPC: 1.57217 (Simulation time: 2 hr 13 min 0 sec) 
Heartbeat CPU 0 instructions: 890000003 cycles: 435113637 heartbeat IPC: 1.57822 cumulative IPC: 1.57233 (Simulation time: 2 hr 14 min 15 sec) 
Heartbeat CPU 0 instructions: 900000000 cycles: 441450076 heartbeat IPC: 1.57817 cumulative IPC: 1.57247 (Simulation time: 2 hr 16 min 20 sec) 
Heartbeat CPU 0 instructions: 910000002 cycles: 447784825 heartbeat IPC: 1.57859 cumulative IPC: 1.57262 (Simulation time: 2 hr 17 min 38 sec) 
Heartbeat CPU 0 instructions: 920000002 cycles: 454125920 heartbeat IPC: 1.57701 cumulative IPC: 1.57272 (Simulation time: 2 hr 18 min 58 sec) 
Heartbeat CPU 0 instructions: 930000003 cycles: 460457223 heartbeat IPC: 1.57945 cumulative IPC: 1.57288 (Simulation time: 2 hr 20 min 18 sec) 
Heartbeat CPU 0 instructions: 940000001 cycles: 466788816 heartbeat IPC: 1.57938 cumulative IPC: 1.57303 (Simulation time: 2 hr 21 min 39 sec) 
Heartbeat CPU 0 instructions: 950000002 cycles: 473137933 heartbeat IPC: 1.57502 cumulative IPC: 1.57307 (Simulation time: 2 hr 23 min 42 sec) 
Heartbeat CPU 0 instructions: 960000004 cycles: 479496162 heartbeat IPC: 1.57277 cumulative IPC: 1.57307 (Simulation time: 2 hr 25 min 25 sec) 
Heartbeat CPU 0 instructions: 970000001 cycles: 486084816 heartbeat IPC: 1.51776 cumulative IPC: 1.57185 (Simulation time: 2 hr 26 min 45 sec) 
Heartbeat CPU 0 instructions: 980000002 cycles: 492422260 heartbeat IPC: 1.57792 cumulative IPC: 1.57197 (Simulation time: 2 hr 28 min 2 sec) 
Heartbeat CPU 0 instructions: 990000000 cycles: 498756990 heartbeat IPC: 1.5786 cumulative IPC: 1.57211 (Simulation time: 2 hr 29 min 20 sec) 
Heartbeat CPU 0 instructions: 1000000002 cycles: 505120927 heartbeat IPC: 1.57135 cumulative IPC: 1.57209 (Simulation time: 2 hr 30 min 38 sec) 
Heartbeat CPU 0 instructions: 1010000000 cycles: 511455602 heartbeat IPC: 1.57861 cumulative IPC: 1.57222 (Simulation time: 2 hr 31 min 54 sec) 
Heartbeat CPU 0 instructions: 1020000002 cycles: 517809723 heartbeat IPC: 1.57378 cumulative IPC: 1.57225 (Simulation time: 2 hr 33 min 10 sec) 
Heartbeat CPU 0 instructions: 1030000000 cycles: 524167298 heartbeat IPC: 1.57293 cumulative IPC: 1.57226 (Simulation time: 2 hr 34 min 26 sec) 
Heartbeat CPU 0 instructions: 1040000001 cycles: 530523947 heartbeat IPC: 1.57316 cumulative IPC: 1.57228 (Simulation time: 2 hr 35 min 42 sec) 
Heartbeat CPU 0 instructions: 1050000003 cycles: 536858751 heartbeat IPC: 1.57858 cumulative IPC: 1.57239 (Simulation time: 2 hr 36 min 57 sec) 
Heartbeat CPU 0 instructions: 1060000003 cycles: 543193728 heartbeat IPC: 1.57854 cumulative IPC: 1.5725 (Simulation time: 2 hr 38 min 15 sec) 
Heartbeat CPU 0 instructions: 1070000004 cycles: 549530836 heartbeat IPC: 1.57801 cumulative IPC: 1.5726 (Simulation time: 2 hr 39 min 49 sec) 
Heartbeat CPU 0 instructions: 1080000003 cycles: 555874127 heartbeat IPC: 1.57647 cumulative IPC: 1.57267 (Simulation time: 2 hr 41 min 8 sec) 
Heartbeat CPU 0 instructions: 1090000003 cycles: 562225716 heartbeat IPC: 1.57441 cumulative IPC: 1.57269 (Simulation time: 2 hr 42 min 26 sec) 
Heartbeat CPU 0 instructions: 1100000002 cycles: 568570017 heartbeat IPC: 1.57622 cumulative IPC: 1.57275 (Simulation time: 2 hr 43 min 46 sec) 
Heartbeat CPU 0 instructions: 1110000004 cycles: 574917068 heartbeat IPC: 1.57554 cumulative IPC: 1.5728 (Simulation time: 2 hr 45 min 5 sec) 
Heartbeat CPU 0 instructions: 1120000001 cycles: 581495392 heartbeat IPC: 1.52014 cumulative IPC: 1.57192 (Simulation time: 2 hr 46 min 25 sec) 
Heartbeat CPU 0 instructions: 1130000001 cycles: 587846337 heartbeat IPC: 1.57457 cumulative IPC: 1.57196 (Simulation time: 2 hr 47 min 41 sec) 
Heartbeat CPU 0 instructions: 1140000000 cycles: 594181655 heartbeat IPC: 1.57845 cumulative IPC: 1.57206 (Simulation time: 2 hr 48 min 59 sec) 
Heartbeat CPU 0 instructions: 1150000002 cycles: 600520623 heartbeat IPC: 1.57754 cumulative IPC: 1.57215 (Simulation time: 2 hr 50 min 15 sec) 
Heartbeat CPU 0 instructions: 1160000002 cycles: 606857339 heartbeat IPC: 1.5781 cumulative IPC: 1.57224 (Simulation time: 2 hr 51 min 31 sec) 
Heartbeat CPU 0 instructions: 1170000001 cycles: 613207819 heartbeat IPC: 1.57468 cumulative IPC: 1.57227 (Simulation time: 2 hr 52 min 50 sec) 
Heartbeat CPU 0 instructions: 1180000004 cycles: 619543049 heartbeat IPC: 1.57848 cumulative IPC: 1.57236 (Simulation time: 2 hr 54 min 6 sec) 
Heartbeat CPU 0 instructions: 1190000003 cycles: 625887015 heartbeat IPC: 1.5763 cumulative IPC: 1.57242 (Simulation time: 2 hr 55 min 22 sec) 
Heartbeat CPU 0 instructions: 1200000000 cycles: 632229000 heartbeat IPC: 1.57679 cumulative IPC: 1.57248 (Simulation time: 2 hr 56 min 38 sec) 
Heartbeat CPU 0 instructions: 1210000003 cycles: 638579371 heartbeat IPC: 1.57471 cumulative IPC: 1.57252 (Simulation time: 2 hr 57 min 53 sec) 
Heartbeat CPU 0 instructions: 1220000003 cycles: 644922907 heartbeat IPC: 1.57641 cumulative IPC: 1.57257 (Simulation time: 2 hr 59 min 7 sec) 
Heartbeat CPU 0 instructions: 1230000004 cycles: 651264058 heartbeat IPC: 1.577 cumulative IPC: 1.57263 (Simulation time: 3 hr 0 min 21 sec) 
Heartbeat CPU 0 instructions: 1240000004 cycles: 657592738 heartbeat IPC: 1.58011 cumulative IPC: 1.57273 (Simulation time: 3 hr 1 min 36 sec) 
Heartbeat CPU 0 instructions: 1250000003 cycles: 663924530 heartbeat IPC: 1.57933 cumulative IPC: 1.57282 (Simulation time: 3 hr 3 min 1 sec) 
Heartbeat CPU 0 instructions: 1260000001 cycles: 670278266 heartbeat IPC: 1.57388 cumulative IPC: 1.57283 (Simulation time: 3 hr 4 min 16 sec) 
Heartbeat CPU 0 instructions: 1270000002 cycles: 676857903 heartbeat IPC: 1.51984 cumulative IPC: 1.57212 (Simulation time: 3 hr 5 min 35 sec) 
Heartbeat CPU 0 instructions: 1280000002 cycles: 683228829 heartbeat IPC: 1.56963 cumulative IPC: 1.57209 (Simulation time: 3 hr 6 min 51 sec) 
Heartbeat CPU 0 instructions: 1290000002 cycles: 689573427 heartbeat IPC: 1.57614 cumulative IPC: 1.57214 (Simulation time: 3 hr 8 min 8 sec) 
Heartbeat CPU 0 instructions: 1300000003 cycles: 695915667 heartbeat IPC: 1.57673 cumulative IPC: 1.5722 (Simulation time: 3 hr 9 min 25 sec) 
Heartbeat CPU 0 instructions: 1310000003 cycles: 702259560 heartbeat IPC: 1.57632 cumulative IPC: 1.57225 (Simulation time: 3 hr 10 min 40 sec) 
Heartbeat CPU 0 instructions: 1320000002 cycles: 708600230 heartbeat IPC: 1.57712 cumulative IPC: 1.57231 (Simulation time: 3 hr 11 min 55 sec) 
Heartbeat CPU 0 instructions: 1330000003 cycles: 714952068 heartbeat IPC: 1.57435 cumulative IPC: 1.57233 (Simulation time: 3 hr 13 min 11 sec) 
Heartbeat CPU 0 instructions: 1340000004 cycles: 721288206 heartbeat IPC: 1.57825 cumulative IPC: 1.5724 (Simulation time: 3 hr 14 min 26 sec) 
Heartbeat CPU 0 instructions: 1350000004 cycles: 727629186 heartbeat IPC: 1.57704 cumulative IPC: 1.57246 (Simulation time: 3 hr 15 min 41 sec) 
Heartbeat CPU 0 instructions: 1360000002 cycles: 733959673 heartbeat IPC: 1.57966 cumulative IPC: 1.57254 (Simulation time: 3 hr 17 min 5 sec) 
Heartbeat CPU 0 instructions: 1370000003 cycles: 740317545 heartbeat IPC: 1.57285 cumulative IPC: 1.57254 (Simulation time: 3 hr 18 min 21 sec) 
Heartbeat CPU 0 instructions: 1380000002 cycles: 746665235 heartbeat IPC: 1.57538 cumulative IPC: 1.57257 (Simulation time: 3 hr 19 min 35 sec) 
Heartbeat CPU 0 instructions: 1390000004 cycles: 752998479 heartbeat IPC: 1.57897 cumulative IPC: 1.57265 (Simulation time: 3 hr 20 min 49 sec) 
Heartbeat CPU 0 instructions: 1400000000 cycles: 759344012 heartbeat IPC: 1.57591 cumulative IPC: 1.57268 (Simulation time: 3 hr 22 min 3 sec) 
Heartbeat CPU 0 instructions: 1410000000 cycles: 765676563 heartbeat IPC: 1.57914 cumulative IPC: 1.57275 (Simulation time: 3 hr 23 min 17 sec) 
Heartbeat CPU 0 instructions: 1420000003 cycles: 772250274 heartbeat IPC: 1.52121 cumulative IPC: 1.57217 (Simulation time: 3 hr 24 min 32 sec) 
Heartbeat CPU 0 instructions: 1430000002 cycles: 778592847 heartbeat IPC: 1.57665 cumulative IPC: 1.57222 (Simulation time: 3 hr 25 min 46 sec) 
Heartbeat CPU 0 instructions: 1440000004 cycles: 784944987 heartbeat IPC: 1.57427 cumulative IPC: 1.57224 (Simulation time: 3 hr 27 min 0 sec) 
Heartbeat CPU 0 instructions: 1450000001 cycles: 791268009 heartbeat IPC: 1.58152 cumulative IPC: 1.57234 (Simulation time: 3 hr 28 min 14 sec) 
Heartbeat CPU 0 instructions: 1460000003 cycles: 797607299 heartbeat IPC: 1.57746 cumulative IPC: 1.57239 (Simulation time: 3 hr 29 min 28 sec) 
Heartbeat CPU 0 instructions: 1470000002 cycles: 803962787 heartbeat IPC: 1.57344 cumulative IPC: 1.57241 (Simulation time: 3 hr 30 min 42 sec) 
Heartbeat CPU 0 instructions: 1480000002 cycles: 810309951 heartbeat IPC: 1.57551 cumulative IPC: 1.57244 (Simulation time: 3 hr 31 min 58 sec) 
Heartbeat CPU 0 instructions: 1490000003 cycles: 816646440 heartbeat IPC: 1.57816 cumulative IPC: 1.57249 (Simulation time: 3 hr 33 min 13 sec) 
Heartbeat CPU 0 instructions: 1500000001 cycles: 823013530 heartbeat IPC: 1.57058 cumulative IPC: 1.57248 (Simulation time: 3 hr 34 min 27 sec) 
Heartbeat CPU 0 instructions: 1510000002 cycles: 829349555 heartbeat IPC: 1.57828 cumulative IPC: 1.57253 (Simulation time: 3 hr 35 min 43 sec) 
Heartbeat CPU 0 instructions: 1520000004 cycles: 835688330 heartbeat IPC: 1.57759 cumulative IPC: 1.57258 (Simulation time: 3 hr 36 min 58 sec) 
Heartbeat CPU 0 instructions: 1530000001 cycles: 842051847 heartbeat IPC: 1.57146 cumulative IPC: 1.57257 (Simulation time: 3 hr 38 min 12 sec) 
Heartbeat CPU 0 instructions: 1540000001 cycles: 848380007 heartbeat IPC: 1.58024 cumulative IPC: 1.57264 (Simulation time: 3 hr 39 min 26 sec) 
Heartbeat CPU 0 instructions: 1550000001 cycles: 854714579 heartbeat IPC: 1.57864 cumulative IPC: 1.5727 (Simulation time: 3 hr 40 min 41 sec) 
Heartbeat CPU 0 instructions: 1560000002 cycles: 861061048 heartbeat IPC: 1.57568 cumulative IPC: 1.57273 (Simulation time: 3 hr 42 min 0 sec) 
Heartbeat CPU 0 instructions: 1570000000 cycles: 867399340 heartbeat IPC: 1.57771 cumulative IPC: 1.57278 (Simulation time: 3 hr 43 min 15 sec) 
Heartbeat CPU 0 instructions: 1580000003 cycles: 873990336 heartbeat IPC: 1.51722 cumulative IPC: 1.57224 (Simulation time: 3 hr 44 min 31 sec) 
Heartbeat CPU 0 instructions: 1590000004 cycles: 880329182 heartbeat IPC: 1.57757 cumulative IPC: 1.57229 (Simulation time: 3 hr 45 min 47 sec) 
Heartbeat CPU 0 instructions: 1600000002 cycles: 886668005 heartbeat IPC: 1.57758 cumulative IPC: 1.57234 (Simulation time: 3 hr 47 min 2 sec) 
Heartbeat CPU 0 instructions: 1610000003 cycles: 892997608 heartbeat IPC: 1.57988 cumulative IPC: 1.57241 (Simulation time: 3 hr 48 min 18 sec) 
Heartbeat CPU 0 instructions: 1620000003 cycles: 899335497 heartbeat IPC: 1.57781 cumulative IPC: 1.57246 (Simulation time: 3 hr 49 min 32 sec) 
Heartbeat CPU 0 instructions: 1630000001 cycles: 905694386 heartbeat IPC: 1.5726 cumulative IPC: 1.57246 (Simulation time: 3 hr 50 min 47 sec) 
Heartbeat CPU 0 instructions: 1640000004 cycles: 912038051 heartbeat IPC: 1.57638 cumulative IPC: 1.57249 (Simulation time: 3 hr 52 min 0 sec) 
Heartbeat CPU 0 instructions: 1650000004 cycles: 918381793 heartbeat IPC: 1.57636 cumulative IPC: 1.57252 (Simulation time: 3 hr 53 min 14 sec) 
Heartbeat CPU 0 instructions: 1660000000 cycles: 924713100 heartbeat IPC: 1.57945 cumulative IPC: 1.57258 (Simulation time: 3 hr 54 min 28 sec) 
Heartbeat CPU 0 instructions: 1670000000 cycles: 931045018 heartbeat IPC: 1.5793 cumulative IPC: 1.57264 (Simulation time: 3 hr 55 min 42 sec) 
Heartbeat CPU 0 instructions: 1680000002 cycles: 937397698 heartbeat IPC: 1.57414 cumulative IPC: 1.57265 (Simulation time: 3 hr 56 min 57 sec) 
Heartbeat CPU 0 instructions: 1690000001 cycles: 943734872 heartbeat IPC: 1.57799 cumulative IPC: 1.5727 (Simulation time: 3 hr 58 min 13 sec) 
Heartbeat CPU 0 instructions: 1700000002 cycles: 950107843 heartbeat IPC: 1.56913 cumulative IPC: 1.57267 (Simulation time: 3 hr 59 min 27 sec) 
Heartbeat CPU 0 instructions: 1710000004 cycles: 956441266 heartbeat IPC: 1.57893 cumulative IPC: 1.57272 (Simulation time: 4 hr 0 min 42 sec) 
Heartbeat CPU 0 instructions: 1720000003 cycles: 962772818 heartbeat IPC: 1.57939 cumulative IPC: 1.57277 (Simulation time: 4 hr 1 min 56 sec) 
Heartbeat CPU 0 instructions: 1730000000 cycles: 969349844 heartbeat IPC: 1.52044 cumulative IPC: 1.57233 (Simulation time: 4 hr 3 min 13 sec) 
Heartbeat CPU 0 instructions: 1740000004 cycles: 975686587 heartbeat IPC: 1.5781 cumulative IPC: 1.57238 (Simulation time: 4 hr 4 min 28 sec) 
Heartbeat CPU 0 instructions: 1750000001 cycles: 982022849 heartbeat IPC: 1.57822 cumulative IPC: 1.57243 (Simulation time: 4 hr 5 min 43 sec) 
Heartbeat CPU 0 instructions: 1760000000 cycles: 988355962 heartbeat IPC: 1.579 cumulative IPC: 1.57248 (Simulation time: 4 hr 6 min 57 sec) 
Heartbeat CPU 0 instructions: 1770000002 cycles: 994691834 heartbeat IPC: 1.57832 cumulative IPC: 1.57252 (Simulation time: 4 hr 8 min 12 sec) 
Heartbeat CPU 0 instructions: 1780000000 cycles: 1001037636 heartbeat IPC: 1.57584 cumulative IPC: 1.57255 (Simulation time: 4 hr 9 min 28 sec) 
Heartbeat CPU 0 instructions: 1790000004 cycles: 1007379762 heartbeat IPC: 1.57676 cumulative IPC: 1.57258 (Simulation time: 4 hr 10 min 42 sec) 
Heartbeat CPU 0 instructions: 1800000002 cycles: 1013717781 heartbeat IPC: 1.57778 cumulative IPC: 1.57262 (Simulation time: 4 hr 11 min 55 sec) 
Heartbeat CPU 0 instructions: 1810000002 cycles: 1020056245 heartbeat IPC: 1.57767 cumulative IPC: 1.57266 (Simulation time: 4 hr 13 min 9 sec) 
Heartbeat CPU 0 instructions: 1820000003 cycles: 1026412201 heartbeat IPC: 1.57333 cumulative IPC: 1.57267 (Simulation time: 4 hr 14 min 23 sec) 
Heartbeat CPU 0 instructions: 1830000001 cycles: 1032756551 heartbeat IPC: 1.57621 cumulative IPC: 1.57269 (Simulation time: 4 hr 15 min 37 sec) 
Heartbeat CPU 0 instructions: 1840000004 cycles: 1039104580 heartbeat IPC: 1.57529 cumulative IPC: 1.57271 (Simulation time: 4 hr 16 min 51 sec) 
Heartbeat CPU 0 instructions: 1850000002 cycles: 1045444863 heartbeat IPC: 1.57722 cumulative IPC: 1.57275 (Simulation time: 4 hr 18 min 5 sec) 
Heartbeat CPU 0 instructions: 1860000002 cycles: 1051792089 heartbeat IPC: 1.57549 cumulative IPC: 1.57277 (Simulation time: 4 hr 19 min 19 sec) 
Heartbeat CPU 0 instructions: 1870000003 cycles: 1058137115 heartbeat IPC: 1.57604 cumulative IPC: 1.57279 (Simulation time: 4 hr 20 min 33 sec) 
Heartbeat CPU 0 instructions: 1880000001 cycles: 1064720003 heartbeat IPC: 1.51909 cumulative IPC: 1.57239 (Simulation time: 4 hr 21 min 49 sec) 
Heartbeat CPU 0 instructions: 1890000004 cycles: 1071072860 heartbeat IPC: 1.5741 cumulative IPC: 1.5724 (Simulation time: 4 hr 23 min 3 sec) 
Heartbeat CPU 0 instructions: 1900000000 cycles: 1077420390 heartbeat IPC: 1.57542 cumulative IPC: 1.57242 (Simulation time: 4 hr 24 min 17 sec) 
Heartbeat CPU 0 instructions: 1910000001 cycles: 1083770765 heartbeat IPC: 1.57471 cumulative IPC: 1.57244 (Simulation time: 4 hr 25 min 32 sec) 
Heartbeat CPU 0 instructions: 1920000000 cycles: 1090103394 heartbeat IPC: 1.57912 cumulative IPC: 1.57248 (Simulation time: 4 hr 26 min 46 sec) 
Heartbeat CPU 0 instructions: 1930000004 cycles: 1096437183 heartbeat IPC: 1.57883 cumulative IPC: 1.57253 (Simulation time: 4 hr 27 min 59 sec) 
Heartbeat CPU 0 instructions: 1940000002 cycles: 1102787181 heartbeat IPC: 1.5748 cumulative IPC: 1.57254 (Simulation time: 4 hr 29 min 13 sec) 
Heartbeat CPU 0 instructions: 1950000000 cycles: 1109125814 heartbeat IPC: 1.57763 cumulative IPC: 1.57258 (Simulation time: 4 hr 30 min 27 sec) 
Heartbeat CPU 0 instructions: 1960000003 cycles: 1115468023 heartbeat IPC: 1.57674 cumulative IPC: 1.57261 (Simulation time: 4 hr 31 min 41 sec) 
Heartbeat CPU 0 instructions: 1970000003 cycles: 1121808462 heartbeat IPC: 1.57718 cumulative IPC: 1.57264 (Simulation time: 4 hr 32 min 54 sec) 
Heartbeat CPU 0 instructions: 1980000001 cycles: 1128171175 heartbeat IPC: 1.57166 cumulative IPC: 1.57263 (Simulation time: 4 hr 34 min 8 sec) 
Heartbeat CPU 0 instructions: 1990000004 cycles: 1134492089 heartbeat IPC: 1.58205 cumulative IPC: 1.57269 (Simulation time: 4 hr 35 min 22 sec) 
*** Reached end of trace: traces/607.cactuBSSN_s-3477B.champsimtrace.xz
Heartbeat CPU 0 instructions: 2000000001 cycles: 1140825029 heartbeat IPC: 1.57904 cumulative IPC: 1.57274 (Simulation time: 4 hr 36 min 36 sec) 
Finished CPU 0 instructions: 1500000000 cycles: 953751547 cumulative IPC: 1.57274 (Simulation time: 4 hr 36 min 36 sec) 

ChampSim completed all CPUs

Region of Interest Statistics

CPU 0 cumulative IPC: 1.57274 instructions: 1500000000 cycles: 953751547
cpu0_DTLB TOTAL     ACCESS:  398166475  HIT:  341589429  MISS:   56577046
cpu0_DTLB LOAD      ACCESS:  341879928  HIT:  292104210  MISS:   49775718
cpu0_DTLB RFO       ACCESS:   56286547  HIT:   49485219  MISS:    6801328
cpu0_DTLB PREFETCH  ACCESS:          0  HIT:          0  MISS:          0
cpu0_DTLB WRITEBACK ACCESS:          0  HIT:          0  MISS:          0
cpu0_DTLB TRANSLATION ACCESS:          0  HIT:          0  MISS:          0
cpu0_DTLB PREFETCH  REQUESTED:          0  ISSUED:          0  USEFUL:          0  USELESS:          0
cpu0_DTLB AVERAGE MISS LATENCY: 9.61923 cycles
cpu0_ITLB TOTAL     ACCESS:   29161331  HIT:   29161331  MISS:          0
cpu0_ITLB LOAD      ACCESS:   29161331  HIT:   29161331  MISS:          0
cpu0_ITLB RFO       ACCESS:          0  HIT:          0  MISS:          0
cpu0_ITLB PREFETCH  ACCESS:          0  HIT:          0  MISS:          0
cpu0_ITLB WRITEBACK ACCESS:          0  HIT:          0  MISS:          0
cpu0_ITLB TRANSLATION ACCESS:          0  HIT:          0  MISS:          0
cpu0_ITLB PREFETCH  REQUESTED:          0  ISSUED:          0  USEFUL:          0  USELESS:          0
cpu0_ITLB AVERAGE MISS LATENCY: -nan cycles
cpu0_L1I TOTAL     ACCESS:  146907082  HIT:  125268395  MISS:   21638687
cpu0_L1I LOAD      ACCESS:  146907082  HIT:  125268395  MISS:   21638687
cpu0_L1I RFO       ACCESS:          0  HIT:          0  MISS:          0
cpu0_L1I PREFETCH  ACCESS:          0  HIT:          0  MISS:          0
cpu0_L1I WRITEBACK ACCESS:          0  HIT:          0  MISS:          0
cpu0_L1I TRANSLATION ACCESS:          0  HIT:          0  MISS:          0
cpu0_L1I PREFETCH  REQUESTED:          0  ISSUED:          0  USEFUL:          0  USELESS:          0
cpu0_L1I AVERAGE MISS LATENCY: 11.2245 cycles
cpu0_STLB TOTAL     ACCESS:   56577046  HIT:   56514361  MISS:      62685
cpu0_STLB LOAD      ACCESS:   49775718  HIT:   49727014  MISS:      48704
cpu0_STLB RFO       ACCESS:    6801328  HIT:    6787347  MISS:      13981
cpu0_STLB PREFETCH  ACCESS:          0  HIT:          0  MISS:          0
cpu0_STLB WRITEBACK ACCESS:          0  HIT:          0  MISS:          0
cpu0_STLB TRANSLATION ACCESS:          0  HIT:          0  MISS:          0
cpu0_STLB PREFETCH  REQUESTED:          0  ISSUED:          0  USEFUL:          0  USELESS:          0
cpu0_STLB AVERAGE MISS LATENCY: 194.982 cycles
cpu0_L1D TOTAL     ACCESS:  562748575  HIT:  453563815  MISS:  109184760
cpu0_L1D LOAD      ACCESS:  444798728  HIT:  344833818  MISS:   99964910
cpu0_L1D RFO       ACCESS:  117887891  HIT:  108729441  MISS:    9158450
cpu0_L1D PREFETCH  ACCESS:          0  HIT:          0  MISS:          0
cpu0_L1D WRITEBACK ACCESS:          0  HIT:          0  MISS:          0
cpu0_L1D TRANSLATION ACCESS:      61956  HIT:        556  MISS:      61400
cpu0_L1D PREFETCH  REQUESTED:          0  ISSUED:          0  USEFUL:          0  USELESS:          0
cpu0_L1D AVERAGE MISS LATENCY: 48.5287 cycles
cpu0_L2C TOTAL     ACCESS:  140599011  HIT:  132540533  MISS:    8058478
cpu0_L2C LOAD      ACCESS:  121589925  HIT:  114514720  MISS:    7075205
cpu0_L2C RFO       ACCESS:    9148860  HIT:    8197086  MISS:     951774
cpu0_L2C PREFETCH  ACCESS:          0  HIT:          0  MISS:          0
cpu0_L2C WRITEBACK ACCESS:    9798826  HIT:    9796278  MISS:       2548
cpu0_L2C TRANSLATION ACCESS:      61400  HIT:      32449  MISS:      28951
cpu0_L2C PREFETCH  REQUESTED:          0  ISSUED:          0  USEFUL:          0  USELESS:          0
cpu0_L2C AVERAGE MISS LATENCY: 498.403 cycles
LLC TOTAL     ACCESS:    8954178  HIT:    4993682  MISS:    3960496
LLC LOAD      ACCESS:    7075165  HIT:    3994490  MISS:    3080675
LLC RFO       ACCESS:     895510  HIT:      17425  MISS:     878085
LLC PREFETCH  ACCESS:          0  HIT:          0  MISS:          0
LLC WRITEBACK ACCESS:     954552  HIT:     953174  MISS:       1378
LLC TRANSLATION ACCESS:      28951  HIT:      28593  MISS:        358
LLC PREFETCH  REQUESTED:          0  ISSUED:          0  USEFUL:          0  USELESS:          0
LLC AVERAGE MISS LATENCY: 971.675 cycles
~~~~~~~~~~Reuse Distance Profiler output~~~~~~~~~~
0	18092832	3936736
1	13749344	6558560
2	13655152	8721328
3	15161312	11443104
4	16996960	12587152
5	17071632	14480992
6	16127504	13460256
7	15684672	13688944
8	14844592	12402544
9	14323792	12242016
10	13869520	11781056
11	13069072	10553024
12	11095248	9028192
13	11790256	9387696
14	10504704	8374864
15	8751168	7127120
16	8738176	7181072
17	9601152	7274736
18	9288016	7798016
19	8274752	7002208
20	7929744	6497168
21	7550336	5978864
22	7643696	6166096
23	7624800	6127536
24	7371024	5657024
25	7623376	5877872
26	6977920	5618064
27	6244720	5025504
28	6228976	4983888
29	6311328	5095808
30	5934992	5029312
31	5716544	5103920
32	5378736	4721280
33	5110544	4321712
34	4900608	4075488
35	5192864	4089440
36	5536192	4602880
37	5282880	4439488
38	5164640	4161856
39	5191424	4433792
40	5012640	4284112
41	5147728	4123920
42	4821568	3664608
43	4329392	3313632
44	3928784	3065904
45	4197568	3247936
46	4094784	3364448
47	3799504	3034256
48	3847328	2993632
49	3482400	2811904
50	3420320	2716096
51	3570432	2816272
52	3419856	2646528
53	3235200	2628832
54	3183168	2655616
55	3090576	2615424
56	2842480	2391056
57	2671568	2320192
58	2633840	2284544
59	2588096	2202336
60	2586800	2126704
61	2428800	2038880
62	2286768	1936960
63	2208320	1849056
64	3886816	3304384
66	3558272	2917024
68	3160704	2491808
70	3335408	2424800
72	3294656	2544368
74	2866512	2317504
76	2783760	2386816
78	3023248	2678224
80	2772944	2365728
82	2339712	1899088
84	2042416	1752272
86	2379488	2068112
88	2555296	2157424
90	2323616	1756032
92	2505616	1620928
94	1760688	1110176
96	1730048	1175552
98	1846832	1330224
100	1667472	1180352
102	1413152	958752
104	1383072	887120
106	1203968	776848
108	1109568	751984
110	913488	587232
112	1065536	773888
114	1280928	960736
116	1315408	1059072
118	1199472	954048
120	1138992	902544
122	985552	746608
124	902384	587984
126	760096	496320
128	1656176	1030224
132	1627712	823232
136	1373520	873392
140	1308288	926176
144	1863936	1296608
148	1653824	1136048
152	1712512	1225744
156	1625392	1088560
160	1462784	964432
164	1415888	956192
168	1237392	763040
172	1399056	1013552
176	1635120	1213680
180	1306032	978368
184	803520	529232
188	858032	574592
192	839088	664592
196	832784	696688
200	913248	734160
204	793360	711504
208	610336	529184
212	541440	442672
216	499968	342496
220	654448	392448
224	788928	464592
228	705664	457152
232	707488	479472
236	718560	633216
240	546176	481184
244	494000	391984
248	434048	321440
252	448928	302528
256	1485728	1302224
264	1074960	910384
272	590912	531088
280	596128	496816
288	558352	382608
296	480400	377888
304	877328	492656
312	941424	542096
320	872160	451728
328	465168	273616
336	489040	276400
344	509408	333856
352	632512	435216
360	1104672	945104
368	674032	576448
376	1092192	974848
384	655744	566144
392	614704	507152
400	461072	304384
408	316816	233008
416	412928	311504
424	355232	184320
432	353376	202160
440	320464	200288
448	273936	135152
456	237888	132336
464	312816	192560
472	501936	308880
480	475824	300976
488	493168	285664
496	433408	263216
504	344800	232752
512	640800	403632
528	780336	560192
544	465280	326448
560	507040	440304
576	271856	194704
592	664256	398752
608	535968	390160
624	566128	492064
640	534800	441696
656	303424	140704
672	411984	190304
688	326768	191408
704	396672	216688
720	633648	367312
736	387920	206496
752	340848	111344
768	249584	90048
784	159584	110512
800	193936	123616
816	221216	128112
832	287120	220080
848	280000	203744
864	365344	201136
880	433568	249536
896	379216	305696
912	299040	223888
928	566208	484688
944	533744	363792
960	365152	114816
976	245248	44960
992	129568	18144
1008	165376	55392
1024	535968	366400
1056	455072	254000
1088	630256	211216
1120	773712	222464
1152	1517584	564640
1184	1953920	1162208
1216	1349552	618976
1248	858416	505600
1280	990704	634336
1312	864432	254320
1344	1310560	564688
1376	951872	430288
1408	639440	312368
1440	638544	464704
1472	655248	398096
1504	398048	233472
1536	601040	363808
1568	169184	65424
1600	596432	398272
1632	450288	387088
1664	565360	489216
1696	851408	689760
1728	876432	787504
1760	648240	487168
1792	616656	448528
1824	921104	846944
1856	1661584	1576384
1888	1785200	1666176
1920	3860896	3774064
1952	6077552	5944192
1984	10443920	10239664
2016	14671056	13938560
2048	48263072	43983200
2112	12145360	11261808
2176	7983248	7695136
2240	24151744	22205152
2304	880	848
2368	32	32
2432	96	80
2496	48	48
2560	16	16
2624	16	16
2688	48	48
2752	0	0
2816	0	0
2880	16	16
2944	32	32
3008	16	16
3072	16	16
3136	0	0
3200	0	0
3264	0	0
3328	16	16
3392	32	32
3456	16	16
3520	32	32
3584	0	0
3648	16	0
3712	32	32
3776	0	0
3840	48	48
3904	64	64
3968	720	688
4032	688	688
4096	1424	1408
4224	144	128
4352	608	496
4480	1424	1424
4608	16	16
4736	0	0
4864	0	0
4992	0	0
5120	0	0
5248	0	0
5376	0	0
5504	0	0
5632	0	0
5760	0	0
5888	0	0
6016	416	416
6144	1232	1232
6272	352	352
6400	0	0
6528	0	0
6656	496	496
6784	176	176
6912	0	0
7040	0	0
7168	0	0
7296	0	0
7424	0	0
7552	0	0
7680	0	0
7808	0	0
7936	0	0
8064	112	112
8192	912	912
8448	0	0
8704	0	0
8960	288	288
9216	0	0
9472	0	0
9728	0	0
9984	112	112
10240	2992	2992
10496	16	16
10752	0	0
11008	128	128
11264	864	864
11520	0	0
11776	0	0
12032	16	16
12288	768	768
12544	16	16
12800	0	0
13056	0	0
13312	240	240
13568	96	96
13824	0	0
14080	64	64
14336	2096	2096
14592	112	112
14848	0	0
15104	0	0
15360	0	0
15616	896	896
15872	16	16
16128	0	0
16384	2096	2096
16896	0	0
17408	0	0
17920	672	672
18432	47344	47344
18944	0	0
19456	0	0
19968	15936	15936
20480	363504	363504
20992	128	128
21504	0	0
22016	3712	3712
22528	119056	119056
23040	48	48
23552	0	0
24064	32	32
24576	1776	1776
25088	0	0
25600	0	0
26112	16	16
26624	672	672
27136	48	48
27648	0	0
28160	0	0
28672	304	304
29184	176	176
29696	0	0
30208	0	0
30720	896	896
31232	80	80
31744	0	0
32256	0	0
32768	1888	1888
33792	272	272
34816	6256	6256
35840	608	608
36864	864	864
37888	1712	1712
38912	576	576
39936	304	304
40960	320	320
41984	128	128
43008	176	176
44032	0	0
45056	144	144
46080	0	0
47104	112	112
48128	0	0
49152	208	208
50176	0	0
51200	160	160
52224	0	0
53248	800	800
54272	0	0
55296	11056	11056
56320	80	80
57344	32	32
58368	288	288
59392	16	16
60416	3392	3392
61440	0	0
62464	0	0
63488	16	16
64512	0	0
65536	0	0
67584	0	0
69632	0	0
71680	0	0
73728	32	32
75776	3664	3664
77824	16	16
79872	16	16
81920	1216	1216
83968	0	0
86016	0	0
88064	0	0
90112	0	0
92160	0	0
94208	0	0
96256	0	0
98304	0	0
100352	0	0
102400	0	0
104448	0	0
106496	0	0
108544	0	0
110592	0	0
112640	0	0
114688	0	0
116736	0	0
118784	0	0
120832	0	0
122880	0	0
124928	0	0
126976	0	0
129024	0	0
131072	0	0
135168	0	0
139264	0	0
143360	0	0
147456	0	0
151552	0	0
155648	0	0
159744	0	0
163840	0	0
167936	0	0
172032	0	0
176128	0	0
180224	0	0
184320	0	0
188416	0	0
192512	0	0
196608	0	0
200704	0	0
204800	0	0
208896	0	0
212992	0	0
217088	0	0
221184	0	0
225280	0	0
229376	0	0
233472	0	0
237568	0	0
241664	0	0
245760	0	0
249856	0	0
253952	0	0
258048	0	0
262144	0	0
270336	0	0
278528	0	0
286720	0	0
294912	0	0
303104	0	0
311296	1552	1552
319488	4476352	4476352
327680	3467088	3467088
335872	298656	298656
344064	465648	465648
352256	2072720	2072720
360448	157072	157072
368640	53280	53280
376832	1072	1072
385024	464	464
393216	192	192
401408	128	128
409600	80	80
417792	96	96
425984	48	48
434176	16	16
442368	0	0
450560	32	32
458752	16	16
466944	0	0
475136	0	0
483328	0	0
491520	0	0
499712	0	0
507904	0	0
516096	0	0
524288	0	0
540672	0	0
557056	0	0
573440	0	0
589824	0	0
606208	0	0
622592	0	0
638976	224	224
655360	320	320
671744	2032	2032
688128	1744	1744
704512	1344	1344
720896	288	288
737280	976	976
753664	544	544
770048	176	176
786432	16	16
802816	48	48
819200	16	16
835584	0	0
851968	0	0
868352	0	0
884736	0	0
901120	0	0
917504	0	0
933888	0	0
950272	0	0
966656	0	0
983040	160	160
999424	400	400
1015808	1040	1040
1032192	1472	1472
1048576	1168	1168
1081344	496	496
1114112	800	800
1146880	288	288
1179648	16	16
1212416	0	0
1245184	0	0
1277952	0	0
1310720	0	0
1343488	1424	1424
1376256	1152	1152
1409024	240	240
1441792	112	112
1474560	560	560
1507328	240	240
1540096	160	160
1572864	0	0
1605632	0	0
1638400	0	0
1671168	704	704
1703936	2352	2352
1736704	992	992
1769472	16	16
1802240	16	16
1835008	448	448
1867776	656	656
1900544	160	160
1933312	16	16
1966080	0	0
1998848	112	112
2031616	1104	1104
2064384	752	752
2097152	192	192
2162688	288	288
2228224	592	592
2293760	64	64
2359296	1328	1328
2424832	800	800
2490368	0	0
2555904	352	352
2621440	272	272
2686976	320	320
2752512	592	592
2818048	0	0
2883584	0	0
2949120	240	240
3014656	288	288
3080192	1248	1248
3145728	32	32
3211264	0	0
3276800	0	0
3342336	432	432
3407872	6416	6416
3473408	48	48
3538944	0	0
3604480	0	0
3670016	32	32
3735552	1984	1984
3801088	160	160
3866624	0	0
3932160	0	0
3997696	0	0
4063232	32	32
4128768	80	80
4194304	0	0
4325376	0	0
4456448	16	16
4587520	0	0
4718592	16	16
4849664	32	32
4980736	0	0
5111808	16	16
5242880	16	16
5373952	0	0
5505024	32	32
5636096	16	16
5767168	64	64
5898240	16	16
6029312	16	16
6160384	32	32
6291456	16	16
6422528	0	0
6553600	0	0
6684672	16	16
6815744	32	32
6946816	0	0
7077888	0	0
7208960	0	0
7340032	0	0
7471104	0	0
7602176	0	0
7733248	0	0
7864320	0	0
7995392	0	0
8126464	0	0
8257536	0	0
8388608	0	0
8650752	0	0
8912896	0	0
9175040	0	0
9437184	0	0
9699328	0	0
9961472	0	0
10223616	0	0
10485760	0	0
10747904	0	0
11010048	0	0
11272192	0	0
11534336	0	0
11796480	0	0
12058624	0	0
12320768	0	0
12582912	0	0
12845056	0	0
13107200	0	0
13369344	0	0
13631488	0	0
13893632	0	0
14155776	0	0
14417920	0	0
14680064	0	0
14942208	0	0
15204352	0	0
15466496	0	0
15728640	0	0
15990784	0	0
16252928	0	0
16515072	0	0
16777216	0	0
17301504	0	0
17825792	0	0
18350080	0	0
18874368	0	0
19398656	0	0
19922944	0	0
20447232	0	0
20971520	0	0
21495808	0	0
22020096	0	0
22544384	0	0
23068672	0	0
23592960	0	0
24117248	0	0
24641536	0	0
25165824	80	16
25690112	0	0
26214400	0	0
26738688	0	0
27262976	0	0
27787264	0	0
28311552	0	0
28835840	0	0
29360128	0	0
29884416	0	0
30408704	0	0
30932992	0	0
31457280	0	0
31981568	0	0
32505856	0	0
33030144	0	0
33554432	0	0
34603008	0	0
35651584	0	0
36700160	0	0
37748736	0	0
38797312	0	0
39845888	0	0
40894464	0	0
41943040	0	0
42991616	80	16
44040192	0	0
45088768	0	0
46137344	0	0
47185920	0	0
48234496	16	16
49283072	0	0
50331648	32	32
51380224	32	32
52428800	96	96
53477376	48	48
54525952	0	0
55574528	1674544	1674544
56623104	326944	326944
57671680	44128	44128
58720256	44352	44352
59768832	390816	390816
60817408	90576	90576
61865984	72432	72432
62914560	0	0
63963136	0	0
65011712	0	0
66060288	0	0
67108864	0	0
69206016	0	0
71303168	0	0
73400320	0	0
75497472	0	0
77594624	0	0
79691776	0	0
81788928	0	0
83886080	16	0
85983232	0	0
88080384	0	0
90177536	0	0
92274688	0	0
94371840	0	0
96468992	0	0
98566144	0	0
100663296	0	0
102760448	0	0
104857600	32	0
106954752	0	0
109051904	0	0
111149056	0	0
113246208	0	0
115343360	16	16
117440512	0	0
119537664	0	0
121634816	0	0
123731968	0	0
125829120	16	16
127926272	0	0
130023424	0	0
132120576	0	0
134217728	0	0
138412032	0	0
142606336	0	0
146800640	0	0
150994944	0	0
155189248	0	0
159383552	0	0
163577856	0	0
167772160	16	16
171966464	0	0
176160768	0	0
180355072	0	0
184549376	0	0
188743680	0	0
192937984	0	0
197132288	0	0
201326592	0	0
205520896	0	0
209715200	0	0
213909504	0	0
218103808	0	0
222298112	0	0
226492416	0	0
230686720	0	0
234881024	0	0
239075328	0	0
243269632	0	0
247463936	0	0
251658240	0	0
255852544	0	0
260046848	0	0
264241152	0	0
268435456	0	0
276824064	0	0
285212672	0	0
293601280	0	0
301989888	0	0
310378496	0	0
318767104	0	0
327155712	0	0
335544320	0	0
343932928	16	16
352321536	0	0
360710144	0	0
369098752	0	0
377487360	0	0
385875968	0	0
394264576	0	0
402653184	0	0
411041792	0	0
419430400	0	0
427819008	0	0
436207616	48	16
444596224	0	0
452984832	0	0
461373440	0	0
469762048	0	0
478150656	0	0
486539264	0	0
494927872	0	0
503316480	0	0
511705088	0	0
520093696	0	0
528482304	0	0
536870912	0	0
553648128	0	0
570425344	0	0
587202560	0	0
603979776	0	0
620756992	0	0
637534208	0	0
654311424	0	0
671088640	0	0
687865856	0	0
704643072	0	0
721420288	0	0
738197504	0	0
754974720	0	0
771751936	0	0
788529152	0	0
805306368	0	0
822083584	0	0
838860800	0	0
855638016	0	0
872415232	0	0
889192448	0	0
905969664	0	0
922746880	0	0
939524096	0	0
956301312	0	0
973078528	0	0
989855744	0	0
1006632960	0	0
1023410176	0	0
1040187392	0	0
1056964608	0	0
1073741824	0	0
1107296256	0	0
1140850688	0	0
1174405120	0	0
1207959552	0	0
1241513984	0	0
1275068416	0	0
1308622848	0	0
1342177280	0	0
1375731712	0	0
1409286144	0	0
1442840576	0	0
1476395008	0	0
1509949440	0	0
1543503872	0	0
1577058304	0	0
1610612736	0	0
1644167168	0	0
1677721600	0	0
1711276032	0	0
1744830464	0	0
1778384896	0	0
1811939328	0	0
1845493760	0	0
1879048192	0	0
1912602624	0	0
1946157056	0	0
1979711488	0	0
2013265920	0	0
2046820352	0	0
2080374784	0	0
2113929216	0	0
2147483648	0	0
2214592512	0	0
2281701376	0	0
2348810240	0	0
2415919104	0	0
2483027968	0	0
2550136832	0	0
2617245696	0	0
2684354560	0	0
2751463424	0	0
2818572288	0	0
2885681152	0	0
2952790016	0	0
3019898880	0	0
3087007744	0	0
3154116608	0	0
3221225472	0	0
3288334336	0	0
3355443200	0	0
3422552064	0	0
3489660928	0	0
3556769792	0	0
3623878656	0	0
3690987520	0	0
3758096384	0	0
3825205248	0	0
3892314112	0	0
3959422976	0	0
4026531840	0	0
4093640704	0	0
4160749568	0	0
4227858432	0	0
~~~~~~~~~~Reuse Distance Profiler output end~~~~~~~~~~

DRAM Statistics
 CHANNEL 0
 RQ ROW_BUFFER_HIT:        451  ROW_BUFFER_MISS:    3958667
 DBUS AVG_CONGESTED_CYCLE:    3.99978
 WQ ROW_BUFFER_HIT:      15891  ROW_BUFFER_MISS:     863758  FULL:          0


CPU 0 Branch Prediction Accuracy: 99.9542% MPKI: 0.004062 Average ROB Occupancy at Mispredict: 54.745
Branch type MPKI
BRANCH_DIRECT_JUMP: 6.66667e-07
BRANCH_INDIRECT: 1.33333e-06
BRANCH_CONDITIONAL: 0.004056
BRANCH_DIRECT_CALL: 2e-06
BRANCH_INDIRECT_CALL: 0
BRANCH_RETURN: 2e-06

