
*** ChampSim Multicore Out-of-Order Simulator ***

Warmup Instructions: 500000000
Simulation Instructions: 1500000000
Number of CPUs: 1
Off-chip DRAM Size: 4 GiB Channels: 1 Width: 64-bit Data Rate: 3200 MT/s

VirtualMemory physical capacity: 8588881920 num_ppages: 2096895
VirtualMemory page size: 4096 log2_page_size: 12

CPU 0 runs traces/619.lbm_s-4268B.champsimtrace.xz
CPU 0 Bimodal branch predictor
Basic BTB sets: 1024 ways: 8 indirect buffer size: 4096 RAS size: 64
Initializing LRU.
Initializing LRU.
Initializing LRU.
Initializing LRU.
Initializing rdLRU.
Initializing LRU.
Initializing LRU.
Heartbeat CPU 0 instructions: 10000001 cycles: 2593162 heartbeat IPC: 3.8563 cumulative IPC: 3.8563 (Simulation time: 0 hr 1 min 7 sec) 
Heartbeat CPU 0 instructions: 20000002 cycles: 5181499 heartbeat IPC: 3.86348 cumulative IPC: 3.85989 (Simulation time: 0 hr 2 min 11 sec) 
Heartbeat CPU 0 instructions: 30000002 cycles: 7772836 heartbeat IPC: 3.85901 cumulative IPC: 3.8596 (Simulation time: 0 hr 3 min 15 sec) 
Heartbeat CPU 0 instructions: 40000002 cycles: 10362157 heartbeat IPC: 3.86202 cumulative IPC: 3.8602 (Simulation time: 0 hr 4 min 10 sec) 
Heartbeat CPU 0 instructions: 50000002 cycles: 12951532 heartbeat IPC: 3.86194 cumulative IPC: 3.86055 (Simulation time: 0 hr 5 min 13 sec) 
Heartbeat CPU 0 instructions: 60000000 cycles: 15545204 heartbeat IPC: 3.85554 cumulative IPC: 3.85971 (Simulation time: 0 hr 6 min 1 sec) 
Heartbeat CPU 0 instructions: 70000002 cycles: 18136403 heartbeat IPC: 3.85922 cumulative IPC: 3.85964 (Simulation time: 0 hr 6 min 42 sec) 
Heartbeat CPU 0 instructions: 80000000 cycles: 20727443 heartbeat IPC: 3.85945 cumulative IPC: 3.85962 (Simulation time: 0 hr 7 min 25 sec) 
Heartbeat CPU 0 instructions: 90000004 cycles: 23322281 heartbeat IPC: 3.85381 cumulative IPC: 3.85897 (Simulation time: 0 hr 8 min 16 sec) 
Heartbeat CPU 0 instructions: 100000001 cycles: 25916495 heartbeat IPC: 3.85473 cumulative IPC: 3.85855 (Simulation time: 0 hr 9 min 0 sec) 
Heartbeat CPU 0 instructions: 110000002 cycles: 28514537 heartbeat IPC: 3.84905 cumulative IPC: 3.85768 (Simulation time: 0 hr 9 min 45 sec) 
Heartbeat CPU 0 instructions: 120000003 cycles: 31114667 heartbeat IPC: 3.84596 cumulative IPC: 3.8567 (Simulation time: 0 hr 10 min 26 sec) 
Heartbeat CPU 0 instructions: 130000000 cycles: 33707515 heartbeat IPC: 3.85676 cumulative IPC: 3.85671 (Simulation time: 0 hr 11 min 8 sec) 
Heartbeat CPU 0 instructions: 140000001 cycles: 36305845 heartbeat IPC: 3.84863 cumulative IPC: 3.85613 (Simulation time: 0 hr 11 min 50 sec) 
Heartbeat CPU 0 instructions: 150000003 cycles: 38906081 heartbeat IPC: 3.84581 cumulative IPC: 3.85544 (Simulation time: 0 hr 12 min 33 sec) 
Heartbeat CPU 0 instructions: 160000001 cycles: 41508792 heartbeat IPC: 3.84215 cumulative IPC: 3.85461 (Simulation time: 0 hr 13 min 25 sec) 
Heartbeat CPU 0 instructions: 170000001 cycles: 44107646 heartbeat IPC: 3.84785 cumulative IPC: 3.85421 (Simulation time: 0 hr 14 min 33 sec) 
Heartbeat CPU 0 instructions: 180000000 cycles: 46710473 heartbeat IPC: 3.84198 cumulative IPC: 3.85353 (Simulation time: 0 hr 15 min 41 sec) 
Heartbeat CPU 0 instructions: 190000004 cycles: 49313696 heartbeat IPC: 3.84139 cumulative IPC: 3.85289 (Simulation time: 0 hr 16 min 50 sec) 
Heartbeat CPU 0 instructions: 200000003 cycles: 51911550 heartbeat IPC: 3.84933 cumulative IPC: 3.85271 (Simulation time: 0 hr 17 min 54 sec) 
Heartbeat CPU 0 instructions: 210000003 cycles: 54512341 heartbeat IPC: 3.84498 cumulative IPC: 3.85234 (Simulation time: 0 hr 18 min 37 sec) 
Heartbeat CPU 0 instructions: 220000001 cycles: 57107813 heartbeat IPC: 3.85286 cumulative IPC: 3.85236 (Simulation time: 0 hr 19 min 19 sec) 
Heartbeat CPU 0 instructions: 230000003 cycles: 59708249 heartbeat IPC: 3.84551 cumulative IPC: 3.85206 (Simulation time: 0 hr 20 min 24 sec) 
Heartbeat CPU 0 instructions: 240000002 cycles: 62303712 heartbeat IPC: 3.85288 cumulative IPC: 3.8521 (Simulation time: 0 hr 21 min 32 sec) 
Heartbeat CPU 0 instructions: 250000000 cycles: 64891086 heartbeat IPC: 3.86492 cumulative IPC: 3.85261 (Simulation time: 0 hr 22 min 21 sec) 
Heartbeat CPU 0 instructions: 260000000 cycles: 67482445 heartbeat IPC: 3.85898 cumulative IPC: 3.85285 (Simulation time: 0 hr 23 min 2 sec) 
Heartbeat CPU 0 instructions: 270000003 cycles: 70071956 heartbeat IPC: 3.86173 cumulative IPC: 3.85318 (Simulation time: 0 hr 23 min 43 sec) 
Heartbeat CPU 0 instructions: 280000001 cycles: 72659775 heartbeat IPC: 3.86426 cumulative IPC: 3.85358 (Simulation time: 0 hr 24 min 24 sec) 
Heartbeat CPU 0 instructions: 290000002 cycles: 75247169 heartbeat IPC: 3.86489 cumulative IPC: 3.85397 (Simulation time: 0 hr 25 min 15 sec) 
Heartbeat CPU 0 instructions: 300000000 cycles: 77842292 heartbeat IPC: 3.85338 cumulative IPC: 3.85395 (Simulation time: 0 hr 26 min 24 sec) 
Heartbeat CPU 0 instructions: 310000002 cycles: 80434830 heartbeat IPC: 3.85722 cumulative IPC: 3.85405 (Simulation time: 0 hr 27 min 33 sec) 
Heartbeat CPU 0 instructions: 320000003 cycles: 83028502 heartbeat IPC: 3.85554 cumulative IPC: 3.8541 (Simulation time: 0 hr 28 min 20 sec) 
Heartbeat CPU 0 instructions: 330000002 cycles: 85619368 heartbeat IPC: 3.85971 cumulative IPC: 3.85427 (Simulation time: 0 hr 29 min 28 sec) 
Heartbeat CPU 0 instructions: 340000003 cycles: 88213079 heartbeat IPC: 3.85548 cumulative IPC: 3.8543 (Simulation time: 0 hr 30 min 29 sec) 
Heartbeat CPU 0 instructions: 350000000 cycles: 90797706 heartbeat IPC: 3.86903 cumulative IPC: 3.85472 (Simulation time: 0 hr 31 min 9 sec) 
Heartbeat CPU 0 instructions: 360000000 cycles: 93388524 heartbeat IPC: 3.85978 cumulative IPC: 3.85486 (Simulation time: 0 hr 31 min 51 sec) 
Heartbeat CPU 0 instructions: 370000002 cycles: 95971562 heartbeat IPC: 3.87141 cumulative IPC: 3.85531 (Simulation time: 0 hr 32 min 32 sec) 
Heartbeat CPU 0 instructions: 380000003 cycles: 98556016 heartbeat IPC: 3.86929 cumulative IPC: 3.85568 (Simulation time: 0 hr 33 min 13 sec) 
Heartbeat CPU 0 instructions: 390000002 cycles: 101147362 heartbeat IPC: 3.859 cumulative IPC: 3.85576 (Simulation time: 0 hr 33 min 55 sec) 
Heartbeat CPU 0 instructions: 400000003 cycles: 103736734 heartbeat IPC: 3.86194 cumulative IPC: 3.85591 (Simulation time: 0 hr 34 min 44 sec) 
Heartbeat CPU 0 instructions: 410000004 cycles: 106327222 heartbeat IPC: 3.86028 cumulative IPC: 3.85602 (Simulation time: 0 hr 35 min 26 sec) 
Heartbeat CPU 0 instructions: 420000003 cycles: 108912781 heartbeat IPC: 3.86764 cumulative IPC: 3.8563 (Simulation time: 0 hr 36 min 7 sec) 
Heartbeat CPU 0 instructions: 430000003 cycles: 111504827 heartbeat IPC: 3.85796 cumulative IPC: 3.85634 (Simulation time: 0 hr 36 min 55 sec) 
Heartbeat CPU 0 instructions: 440000002 cycles: 114100649 heartbeat IPC: 3.85234 cumulative IPC: 3.85624 (Simulation time: 0 hr 37 min 57 sec) 
Heartbeat CPU 0 instructions: 450000001 cycles: 116691569 heartbeat IPC: 3.85963 cumulative IPC: 3.85632 (Simulation time: 0 hr 39 min 5 sec) 
Heartbeat CPU 0 instructions: 460000001 cycles: 119283731 heartbeat IPC: 3.85778 cumulative IPC: 3.85635 (Simulation time: 0 hr 39 min 47 sec) 
Heartbeat CPU 0 instructions: 470000002 cycles: 121870797 heartbeat IPC: 3.86538 cumulative IPC: 3.85654 (Simulation time: 0 hr 40 min 43 sec) 
Heartbeat CPU 0 instructions: 480000000 cycles: 124452213 heartbeat IPC: 3.87384 cumulative IPC: 3.8569 (Simulation time: 0 hr 41 min 45 sec) 
Heartbeat CPU 0 instructions: 490000002 cycles: 127022187 heartbeat IPC: 3.89109 cumulative IPC: 3.85759 (Simulation time: 0 hr 42 min 50 sec) 
Heartbeat CPU 0 instructions: 500000000 cycles: 129582611 heartbeat IPC: 3.9056 cumulative IPC: 3.85854 (Simulation time: 0 hr 43 min 53 sec) 

Warmup complete CPU 0 instructions: 500000004 cycles: 129582612 (Simulation time: 0 hr 43 min 53 sec) 

Heartbeat CPU 0 instructions: 510000003 cycles: 167376668 heartbeat IPC: 0.264592 cumulative IPC: 0.264592 (Simulation time: 0 hr 50 min 15 sec) 
Heartbeat CPU 0 instructions: 520000001 cycles: 202963155 heartbeat IPC: 0.281005 cumulative IPC: 0.272552 (Simulation time: 0 hr 53 min 58 sec) 
Heartbeat CPU 0 instructions: 530000003 cycles: 236859782 heartbeat IPC: 0.295015 cumulative IPC: 0.279649 (Simulation time: 0 hr 59 min 28 sec) 
Heartbeat CPU 0 instructions: 540000001 cycles: 269754933 heartbeat IPC: 0.303996 cumulative IPC: 0.285363 (Simulation time: 1 hr 2 min 51 sec) 
Heartbeat CPU 0 instructions: 550000004 cycles: 300791847 heartbeat IPC: 0.322197 cumulative IPC: 0.29204 (Simulation time: 1 hr 6 min 13 sec) 
Heartbeat CPU 0 instructions: 560000001 cycles: 331790369 heartbeat IPC: 0.322596 cumulative IPC: 0.296724 (Simulation time: 1 hr 10 min 3 sec) 
Heartbeat CPU 0 instructions: 570000000 cycles: 360844425 heartbeat IPC: 0.344186 cumulative IPC: 0.302687 (Simulation time: 1 hr 13 min 53 sec) 
Heartbeat CPU 0 instructions: 580000000 cycles: 389783140 heartbeat IPC: 0.345558 cumulative IPC: 0.307455 (Simulation time: 1 hr 17 min 26 sec) 
Heartbeat CPU 0 instructions: 590000004 cycles: 417630159 heartbeat IPC: 0.359105 cumulative IPC: 0.312448 (Simulation time: 1 hr 20 min 42 sec) 
Heartbeat CPU 0 instructions: 600000004 cycles: 444804413 heartbeat IPC: 0.367995 cumulative IPC: 0.317237 (Simulation time: 1 hr 23 min 58 sec) 
Heartbeat CPU 0 instructions: 610000002 cycles: 471006696 heartbeat IPC: 0.381646 cumulative IPC: 0.32218 (Simulation time: 1 hr 27 min 13 sec) 
Heartbeat CPU 0 instructions: 620000000 cycles: 497311619 heartbeat IPC: 0.380157 cumulative IPC: 0.326327 (Simulation time: 1 hr 29 min 52 sec) 
Heartbeat CPU 0 instructions: 630000004 cycles: 523382131 heartbeat IPC: 0.383575 cumulative IPC: 0.330117 (Simulation time: 1 hr 33 min 54 sec) 
Heartbeat CPU 0 instructions: 640000004 cycles: 548644188 heartbeat IPC: 0.395851 cumulative IPC: 0.33408 (Simulation time: 1 hr 37 min 56 sec) 
Heartbeat CPU 0 instructions: 650000000 cycles: 573959732 heartbeat IPC: 0.395014 cumulative IPC: 0.337551 (Simulation time: 1 hr 41 min 59 sec) 
Heartbeat CPU 0 instructions: 660000002 cycles: 598524176 heartbeat IPC: 0.407093 cumulative IPC: 0.341194 (Simulation time: 1 hr 45 min 46 sec) 
Heartbeat CPU 0 instructions: 670000001 cycles: 623249484 heartbeat IPC: 0.404444 cumulative IPC: 0.344362 (Simulation time: 1 hr 48 min 26 sec) 
Heartbeat CPU 0 instructions: 680000000 cycles: 647687579 heartbeat IPC: 0.409197 cumulative IPC: 0.34742 (Simulation time: 1 hr 51 min 22 sec) 
Heartbeat CPU 0 instructions: 690000001 cycles: 672166606 heartbeat IPC: 0.408513 cumulative IPC: 0.350176 (Simulation time: 1 hr 55 min 19 sec) 
Heartbeat CPU 0 instructions: 700000000 cycles: 696774149 heartbeat IPC: 0.406379 cumulative IPC: 0.352615 (Simulation time: 1 hr 58 min 52 sec) 
Heartbeat CPU 0 instructions: 710000004 cycles: 721067146 heartbeat IPC: 0.411641 cumulative IPC: 0.355039 (Simulation time: 2 hr 2 min 53 sec) 
Heartbeat CPU 0 instructions: 720000003 cycles: 745081035 heartbeat IPC: 0.416426 cumulative IPC: 0.357434 (Simulation time: 2 hr 6 min 17 sec) 
Heartbeat CPU 0 instructions: 730000000 cycles: 769244278 heartbeat IPC: 0.413852 cumulative IPC: 0.359565 (Simulation time: 2 hr 9 min 55 sec) 
Heartbeat CPU 0 instructions: 740000003 cycles: 793167927 heartbeat IPC: 0.417997 cumulative IPC: 0.361672 (Simulation time: 2 hr 12 min 5 sec) 
Heartbeat CPU 0 instructions: 750000004 cycles: 817178804 heartbeat IPC: 0.416478 cumulative IPC: 0.363586 (Simulation time: 2 hr 14 min 13 sec) 
Heartbeat CPU 0 instructions: 760000001 cycles: 840981252 heartbeat IPC: 0.420125 cumulative IPC: 0.365477 (Simulation time: 2 hr 17 min 5 sec) 
Heartbeat CPU 0 instructions: 770000002 cycles: 864937328 heartbeat IPC: 0.417431 cumulative IPC: 0.36717 (Simulation time: 2 hr 21 min 2 sec) 
Heartbeat CPU 0 instructions: 780000003 cycles: 888594157 heartbeat IPC: 0.422711 cumulative IPC: 0.368901 (Simulation time: 2 hr 24 min 50 sec) 
Heartbeat CPU 0 instructions: 790000001 cycles: 912549875 heartbeat IPC: 0.417437 cumulative IPC: 0.370386 (Simulation time: 2 hr 26 min 57 sec) 
Heartbeat CPU 0 instructions: 800000003 cycles: 936148687 heartbeat IPC: 0.42375 cumulative IPC: 0.371947 (Simulation time: 2 hr 29 min 13 sec) 
Heartbeat CPU 0 instructions: 810000002 cycles: 960089507 heartbeat IPC: 0.417697 cumulative IPC: 0.373266 (Simulation time: 2 hr 32 min 44 sec) 
Heartbeat CPU 0 instructions: 820000003 cycles: 983960213 heartbeat IPC: 0.418924 cumulative IPC: 0.374542 (Simulation time: 2 hr 34 min 54 sec) 
Heartbeat CPU 0 instructions: 830000002 cycles: 1007581162 heartbeat IPC: 0.423353 cumulative IPC: 0.375855 (Simulation time: 2 hr 37 min 35 sec) 
Heartbeat CPU 0 instructions: 840000000 cycles: 1031477739 heartbeat IPC: 0.41847 cumulative IPC: 0.376984 (Simulation time: 2 hr 40 min 11 sec) 
Heartbeat CPU 0 instructions: 850000000 cycles: 1055009289 heartbeat IPC: 0.424961 cumulative IPC: 0.378204 (Simulation time: 2 hr 42 min 22 sec) 
Heartbeat CPU 0 instructions: 860000004 cycles: 1078863228 heartbeat IPC: 0.419218 cumulative IPC: 0.379235 (Simulation time: 2 hr 44 min 53 sec) 
Heartbeat CPU 0 instructions: 870000001 cycles: 1102410978 heartbeat IPC: 0.424669 cumulative IPC: 0.380334 (Simulation time: 2 hr 47 min 29 sec) 
Heartbeat CPU 0 instructions: 880000004 cycles: 1126347520 heartbeat IPC: 0.417771 cumulative IPC: 0.381233 (Simulation time: 2 hr 50 min 25 sec) 
Heartbeat CPU 0 instructions: 890000001 cycles: 1149898986 heartbeat IPC: 0.424602 cumulative IPC: 0.382234 (Simulation time: 2 hr 52 min 26 sec) 
Heartbeat CPU 0 instructions: 900000002 cycles: 1173865632 heartbeat IPC: 0.417247 cumulative IPC: 0.383038 (Simulation time: 2 hr 54 min 40 sec) 
Heartbeat CPU 0 instructions: 910000004 cycles: 1197459971 heartbeat IPC: 0.423831 cumulative IPC: 0.383939 (Simulation time: 2 hr 57 min 26 sec) 
Heartbeat CPU 0 instructions: 920000003 cycles: 1221421934 heartbeat IPC: 0.417328 cumulative IPC: 0.384672 (Simulation time: 2 hr 59 min 31 sec) 
Heartbeat CPU 0 instructions: 930000000 cycles: 1245007352 heartbeat IPC: 0.423991 cumulative IPC: 0.385503 (Simulation time: 3 hr 1 min 40 sec) 
Heartbeat CPU 0 instructions: 940000004 cycles: 1271255223 heartbeat IPC: 0.380983 cumulative IPC: 0.385399 (Simulation time: 3 hr 4 min 10 sec) 
Heartbeat CPU 0 instructions: 950000000 cycles: 1337553245 heartbeat IPC: 0.150834 cumulative IPC: 0.372526 (Simulation time: 3 hr 11 min 32 sec) 
Heartbeat CPU 0 instructions: 960000001 cycles: 1390814893 heartbeat IPC: 0.187752 cumulative IPC: 0.364723 (Simulation time: 3 hr 17 min 18 sec) 
Heartbeat CPU 0 instructions: 970000002 cycles: 1416897839 heartbeat IPC: 0.383392 cumulative IPC: 0.365101 (Simulation time: 3 hr 19 min 34 sec) 
Heartbeat CPU 0 instructions: 980000004 cycles: 1440490458 heartbeat IPC: 0.423861 cumulative IPC: 0.366158 (Simulation time: 3 hr 21 min 36 sec) 
Heartbeat CPU 0 instructions: 990000000 cycles: 1464415883 heartbeat IPC: 0.417965 cumulative IPC: 0.367087 (Simulation time: 3 hr 23 min 40 sec) 
Heartbeat CPU 0 instructions: 1000000001 cycles: 1488033377 heartbeat IPC: 0.423415 cumulative IPC: 0.368066 (Simulation time: 3 hr 25 min 42 sec) 
Heartbeat CPU 0 instructions: 1010000003 cycles: 1511921873 heartbeat IPC: 0.418612 cumulative IPC: 0.36894 (Simulation time: 3 hr 27 min 46 sec) 
Heartbeat CPU 0 instructions: 1020000002 cycles: 1535516635 heartbeat IPC: 0.423823 cumulative IPC: 0.369861 (Simulation time: 3 hr 29 min 49 sec) 
Heartbeat CPU 0 instructions: 1030000004 cycles: 1559519528 heartbeat IPC: 0.416617 cumulative IPC: 0.370646 (Simulation time: 3 hr 31 min 57 sec) 
Heartbeat CPU 0 instructions: 1040000003 cycles: 1583146096 heartbeat IPC: 0.423252 cumulative IPC: 0.371501 (Simulation time: 3 hr 34 min 0 sec) 
Heartbeat CPU 0 instructions: 1050000000 cycles: 1607056538 heartbeat IPC: 0.418227 cumulative IPC: 0.372257 (Simulation time: 3 hr 36 min 6 sec) 
Heartbeat CPU 0 instructions: 1060000000 cycles: 1630663871 heartbeat IPC: 0.423597 cumulative IPC: 0.373064 (Simulation time: 3 hr 38 min 11 sec) 
Heartbeat CPU 0 instructions: 1070000004 cycles: 1654631605 heartbeat IPC: 0.417228 cumulative IPC: 0.373758 (Simulation time: 3 hr 40 min 19 sec) 
Heartbeat CPU 0 instructions: 1080000000 cycles: 1678217861 heartbeat IPC: 0.423976 cumulative IPC: 0.374523 (Simulation time: 3 hr 42 min 22 sec) 
Heartbeat CPU 0 instructions: 1090000000 cycles: 1702146896 heartbeat IPC: 0.417902 cumulative IPC: 0.375183 (Simulation time: 3 hr 44 min 27 sec) 
Heartbeat CPU 0 instructions: 1100000001 cycles: 1726108836 heartbeat IPC: 0.417329 cumulative IPC: 0.375816 (Simulation time: 3 hr 46 min 32 sec) 
Heartbeat CPU 0 instructions: 1110000002 cycles: 1749680496 heartbeat IPC: 0.424238 cumulative IPC: 0.37652 (Simulation time: 3 hr 48 min 33 sec) 
Heartbeat CPU 0 instructions: 1120000003 cycles: 1774103650 heartbeat IPC: 0.409448 cumulative IPC: 0.377009 (Simulation time: 3 hr 50 min 41 sec) 
Heartbeat CPU 0 instructions: 1130000003 cycles: 1799687857 heartbeat IPC: 0.390866 cumulative IPC: 0.377222 (Simulation time: 3 hr 52 min 56 sec) 
Heartbeat CPU 0 instructions: 1140000004 cycles: 1828382946 heartbeat IPC: 0.348492 cumulative IPC: 0.376736 (Simulation time: 3 hr 55 min 31 sec) 
Heartbeat CPU 0 instructions: 1150000001 cycles: 1859864068 heartbeat IPC: 0.317651 cumulative IPC: 0.375661 (Simulation time: 3 hr 58 min 22 sec) 
Heartbeat CPU 0 instructions: 1160000003 cycles: 1895978208 heartbeat IPC: 0.2769 cumulative IPC: 0.373642 (Simulation time: 4 hr 1 min 44 sec) 
Heartbeat CPU 0 instructions: 1170000001 cycles: 1939914771 heartbeat IPC: 0.227601 cumulative IPC: 0.370098 (Simulation time: 4 hr 5 min 56 sec) 
Heartbeat CPU 0 instructions: 1180000003 cycles: 1994391651 heartbeat IPC: 0.183564 cumulative IPC: 0.364649 (Simulation time: 4 hr 11 min 19 sec) 
Heartbeat CPU 0 instructions: 1190000003 cycles: 2052136917 heartbeat IPC: 0.173174 cumulative IPC: 0.358898 (Simulation time: 4 hr 17 min 6 sec) 
Heartbeat CPU 0 instructions: 1200000001 cycles: 2116061756 heartbeat IPC: 0.156434 cumulative IPC: 0.352382 (Simulation time: 4 hr 23 min 38 sec) 
Heartbeat CPU 0 instructions: 1210000002 cycles: 2174533718 heartbeat IPC: 0.171022 cumulative IPC: 0.347197 (Simulation time: 4 hr 29 min 30 sec) 
Heartbeat CPU 0 instructions: 1220000000 cycles: 2228997575 heartbeat IPC: 0.183608 cumulative IPC: 0.342953 (Simulation time: 4 hr 34 min 54 sec) 
Heartbeat CPU 0 instructions: 1230000001 cycles: 2280344674 heartbeat IPC: 0.194753 cumulative IPC: 0.339415 (Simulation time: 4 hr 39 min 56 sec) 
Heartbeat CPU 0 instructions: 1240000000 cycles: 2328389226 heartbeat IPC: 0.20814 cumulative IPC: 0.336546 (Simulation time: 4 hr 44 min 36 sec) 
Heartbeat CPU 0 instructions: 1250000000 cycles: 2375836849 heartbeat IPC: 0.210759 cumulative IPC: 0.333889 (Simulation time: 4 hr 49 min 12 sec) 
Heartbeat CPU 0 instructions: 1260000003 cycles: 2421808046 heartbeat IPC: 0.217528 cumulative IPC: 0.331556 (Simulation time: 4 hr 53 min 38 sec) 
Heartbeat CPU 0 instructions: 1270000000 cycles: 2468215960 heartbeat IPC: 0.21548 cumulative IPC: 0.329252 (Simulation time: 4 hr 58 min 7 sec) 
Heartbeat CPU 0 instructions: 1280000003 cycles: 2513982278 heartbeat IPC: 0.218501 cumulative IPC: 0.327126 (Simulation time: 5 hr 2 min 34 sec) 
Heartbeat CPU 0 instructions: 1290000001 cycles: 2558590802 heartbeat IPC: 0.224172 cumulative IPC: 0.325236 (Simulation time: 5 hr 6 min 54 sec) 
Heartbeat CPU 0 instructions: 1300000000 cycles: 2604253442 heartbeat IPC: 0.218997 cumulative IPC: 0.323275 (Simulation time: 5 hr 11 min 20 sec) 
Heartbeat CPU 0 instructions: 1310000002 cycles: 2650282127 heartbeat IPC: 0.217256 cumulative IPC: 0.321339 (Simulation time: 5 hr 15 min 51 sec) 
Heartbeat CPU 0 instructions: 1320000000 cycles: 2698285341 heartbeat IPC: 0.208319 cumulative IPC: 0.319227 (Simulation time: 5 hr 20 min 34 sec) 
Heartbeat CPU 0 instructions: 1330000000 cycles: 2746623146 heartbeat IPC: 0.206877 cumulative IPC: 0.317152 (Simulation time: 5 hr 25 min 17 sec) 
Heartbeat CPU 0 instructions: 1340000001 cycles: 2794744098 heartbeat IPC: 0.20781 cumulative IPC: 0.315178 (Simulation time: 5 hr 29 min 59 sec) 
Heartbeat CPU 0 instructions: 1350000000 cycles: 2843050811 heartbeat IPC: 0.207011 cumulative IPC: 0.313252 (Simulation time: 5 hr 34 min 42 sec) 
Heartbeat CPU 0 instructions: 1360000001 cycles: 2889251779 heartbeat IPC: 0.216446 cumulative IPC: 0.311632 (Simulation time: 5 hr 39 min 13 sec) 
Heartbeat CPU 0 instructions: 1370000001 cycles: 2937339449 heartbeat IPC: 0.207954 cumulative IPC: 0.309856 (Simulation time: 5 hr 43 min 55 sec) 
Heartbeat CPU 0 instructions: 1380000001 cycles: 2984709023 heartbeat IPC: 0.211106 cumulative IPC: 0.308218 (Simulation time: 5 hr 48 min 33 sec) 
Heartbeat CPU 0 instructions: 1390000000 cycles: 3031506215 heartbeat IPC: 0.213688 cumulative IPC: 0.306693 (Simulation time: 5 hr 53 min 6 sec) 
Heartbeat CPU 0 instructions: 1400000004 cycles: 3078360135 heartbeat IPC: 0.213429 cumulative IPC: 0.305211 (Simulation time: 5 hr 57 min 40 sec) 
Heartbeat CPU 0 instructions: 1410000004 cycles: 3125334597 heartbeat IPC: 0.212882 cumulative IPC: 0.303763 (Simulation time: 6 hr 2 min 14 sec) 
Heartbeat CPU 0 instructions: 1420000004 cycles: 3172686802 heartbeat IPC: 0.211183 cumulative IPC: 0.302323 (Simulation time: 6 hr 6 min 52 sec) 
Heartbeat CPU 0 instructions: 1430000002 cycles: 3220200729 heartbeat IPC: 0.210465 cumulative IPC: 0.300911 (Simulation time: 6 hr 11 min 30 sec) 
Heartbeat CPU 0 instructions: 1440000000 cycles: 3268398076 heartbeat IPC: 0.20748 cumulative IPC: 0.299476 (Simulation time: 6 hr 16 min 13 sec) 
Heartbeat CPU 0 instructions: 1450000000 cycles: 3316490587 heartbeat IPC: 0.207933 cumulative IPC: 0.298095 (Simulation time: 6 hr 20 min 54 sec) 
Heartbeat CPU 0 instructions: 1460000003 cycles: 3363790197 heartbeat IPC: 0.211418 cumulative IPC: 0.296827 (Simulation time: 6 hr 25 min 32 sec) 
Heartbeat CPU 0 instructions: 1470000000 cycles: 3409624960 heartbeat IPC: 0.218175 cumulative IPC: 0.295728 (Simulation time: 6 hr 30 min 0 sec) 
Heartbeat CPU 0 instructions: 1480000003 cycles: 3457085189 heartbeat IPC: 0.210703 cumulative IPC: 0.294515 (Simulation time: 6 hr 34 min 39 sec) 
Heartbeat CPU 0 instructions: 1490000004 cycles: 3504148955 heartbeat IPC: 0.212478 cumulative IPC: 0.293371 (Simulation time: 6 hr 39 min 14 sec) 
Heartbeat CPU 0 instructions: 1500000001 cycles: 3551708069 heartbeat IPC: 0.210265 cumulative IPC: 0.292216 (Simulation time: 6 hr 43 min 53 sec) 
Heartbeat CPU 0 instructions: 1510000000 cycles: 3599467599 heartbeat IPC: 0.209382 cumulative IPC: 0.291076 (Simulation time: 6 hr 48 min 33 sec) 
Heartbeat CPU 0 instructions: 1520000000 cycles: 3645731235 heartbeat IPC: 0.216152 cumulative IPC: 0.29009 (Simulation time: 6 hr 53 min 2 sec) 
Heartbeat CPU 0 instructions: 1530000002 cycles: 3693905526 heartbeat IPC: 0.20758 cumulative IPC: 0.288975 (Simulation time: 6 hr 57 min 43 sec) 
Heartbeat CPU 0 instructions: 1540000000 cycles: 3741861232 heartbeat IPC: 0.208526 cumulative IPC: 0.287907 (Simulation time: 7 hr 2 min 23 sec) 
Heartbeat CPU 0 instructions: 1550000001 cycles: 3789808322 heartbeat IPC: 0.208563 cumulative IPC: 0.286868 (Simulation time: 7 hr 7 min 3 sec) 
Heartbeat CPU 0 instructions: 1560000000 cycles: 3837850396 heartbeat IPC: 0.208151 cumulative IPC: 0.285848 (Simulation time: 7 hr 11 min 44 sec) 
Heartbeat CPU 0 instructions: 1570000002 cycles: 3884765460 heartbeat IPC: 0.213151 cumulative IPC: 0.28494 (Simulation time: 7 hr 16 min 18 sec) 
Heartbeat CPU 0 instructions: 1580000000 cycles: 3933210088 heartbeat IPC: 0.206421 cumulative IPC: 0.283939 (Simulation time: 7 hr 21 min 2 sec) 
Heartbeat CPU 0 instructions: 1590000000 cycles: 3981388833 heartbeat IPC: 0.20756 cumulative IPC: 0.282984 (Simulation time: 7 hr 25 min 44 sec) 
Heartbeat CPU 0 instructions: 1600000002 cycles: 4028968110 heartbeat IPC: 0.210176 cumulative IPC: 0.282096 (Simulation time: 7 hr 30 min 21 sec) 
Heartbeat CPU 0 instructions: 1610000000 cycles: 4076560592 heartbeat IPC: 0.210117 cumulative IPC: 0.281228 (Simulation time: 7 hr 34 min 59 sec) 
Heartbeat CPU 0 instructions: 1620000001 cycles: 4123246572 heartbeat IPC: 0.214197 cumulative IPC: 0.280444 (Simulation time: 7 hr 39 min 31 sec) 
Heartbeat CPU 0 instructions: 1630000002 cycles: 4169528335 heartbeat IPC: 0.216068 cumulative IPC: 0.279707 (Simulation time: 7 hr 44 min 0 sec) 
Heartbeat CPU 0 instructions: 1640000000 cycles: 4216897920 heartbeat IPC: 0.211106 cumulative IPC: 0.278912 (Simulation time: 7 hr 48 min 37 sec) 
Heartbeat CPU 0 instructions: 1650000003 cycles: 4263496363 heartbeat IPC: 0.2146 cumulative IPC: 0.278187 (Simulation time: 7 hr 53 min 8 sec) 
Heartbeat CPU 0 instructions: 1660000001 cycles: 4310763743 heartbeat IPC: 0.211562 cumulative IPC: 0.277434 (Simulation time: 7 hr 57 min 45 sec) 
Heartbeat CPU 0 instructions: 1670000003 cycles: 4359028372 heartbeat IPC: 0.207191 cumulative IPC: 0.276632 (Simulation time: 8 hr 2 min 28 sec) 
Heartbeat CPU 0 instructions: 1680000001 cycles: 4407576593 heartbeat IPC: 0.205981 cumulative IPC: 0.27583 (Simulation time: 8 hr 7 min 12 sec) 
Heartbeat CPU 0 instructions: 1690000000 cycles: 4458228140 heartbeat IPC: 0.197427 cumulative IPC: 0.274913 (Simulation time: 8 hr 12 min 11 sec) 
Heartbeat CPU 0 instructions: 1700000002 cycles: 4508062337 heartbeat IPC: 0.200665 cumulative IPC: 0.274068 (Simulation time: 8 hr 17 min 3 sec) 
Heartbeat CPU 0 instructions: 1710000004 cycles: 4557273835 heartbeat IPC: 0.203205 cumulative IPC: 0.27328 (Simulation time: 8 hr 21 min 51 sec) 
Heartbeat CPU 0 instructions: 1720000001 cycles: 4604775781 heartbeat IPC: 0.210518 cumulative IPC: 0.272614 (Simulation time: 8 hr 26 min 29 sec) 
Heartbeat CPU 0 instructions: 1730000003 cycles: 4652999038 heartbeat IPC: 0.207369 cumulative IPC: 0.271918 (Simulation time: 8 hr 31 min 10 sec) 
Heartbeat CPU 0 instructions: 1740000003 cycles: 4699802978 heartbeat IPC: 0.213657 cumulative IPC: 0.271322 (Simulation time: 8 hr 35 min 43 sec) 
Heartbeat CPU 0 instructions: 1750000000 cycles: 4746581517 heartbeat IPC: 0.213773 cumulative IPC: 0.270739 (Simulation time: 8 hr 40 min 14 sec) 
Heartbeat CPU 0 instructions: 1760000003 cycles: 4793479100 heartbeat IPC: 0.213231 cumulative IPC: 0.27016 (Simulation time: 8 hr 44 min 47 sec) 
Heartbeat CPU 0 instructions: 1770000004 cycles: 4839610182 heartbeat IPC: 0.216774 cumulative IPC: 0.269637 (Simulation time: 8 hr 49 min 15 sec) 
Heartbeat CPU 0 instructions: 1780000000 cycles: 4884553049 heartbeat IPC: 0.222505 cumulative IPC: 0.269192 (Simulation time: 8 hr 53 min 35 sec) 
Heartbeat CPU 0 instructions: 1790000003 cycles: 4930879843 heartbeat IPC: 0.215858 cumulative IPC: 0.268677 (Simulation time: 8 hr 58 min 4 sec) 
Heartbeat CPU 0 instructions: 1800000003 cycles: 4977634938 heartbeat IPC: 0.21388 cumulative IPC: 0.268149 (Simulation time: 9 hr 2 min 36 sec) 
Heartbeat CPU 0 instructions: 1810000002 cycles: 5025676893 heartbeat IPC: 0.208151 cumulative IPC: 0.26756 (Simulation time: 9 hr 7 min 16 sec) 
Heartbeat CPU 0 instructions: 1820000004 cycles: 5073051047 heartbeat IPC: 0.211086 cumulative IPC: 0.267019 (Simulation time: 9 hr 11 min 52 sec) 
Heartbeat CPU 0 instructions: 1830000000 cycles: 5120503902 heartbeat IPC: 0.210735 cumulative IPC: 0.266484 (Simulation time: 9 hr 16 min 28 sec) 
Heartbeat CPU 0 instructions: 1840000004 cycles: 5168181385 heartbeat IPC: 0.209743 cumulative IPC: 0.265947 (Simulation time: 9 hr 21 min 5 sec) 
Heartbeat CPU 0 instructions: 1850000003 cycles: 5216351755 heartbeat IPC: 0.207596 cumulative IPC: 0.265394 (Simulation time: 9 hr 25 min 47 sec) 
Heartbeat CPU 0 instructions: 1860000003 cycles: 5263953611 heartbeat IPC: 0.210076 cumulative IPC: 0.264882 (Simulation time: 9 hr 30 min 24 sec) 
Heartbeat CPU 0 instructions: 1870000003 cycles: 5310025965 heartbeat IPC: 0.21705 cumulative IPC: 0.264456 (Simulation time: 9 hr 34 min 53 sec) 
Heartbeat CPU 0 instructions: 1880000000 cycles: 5355666871 heartbeat IPC: 0.219102 cumulative IPC: 0.26406 (Simulation time: 9 hr 39 min 17 sec) 
Heartbeat CPU 0 instructions: 1890000004 cycles: 5400426179 heartbeat IPC: 0.223417 cumulative IPC: 0.263715 (Simulation time: 9 hr 43 min 36 sec) 
Heartbeat CPU 0 instructions: 1900000001 cycles: 5446140787 heartbeat IPC: 0.218748 cumulative IPC: 0.263328 (Simulation time: 9 hr 48 min 1 sec) 
Heartbeat CPU 0 instructions: 1910000001 cycles: 5492190106 heartbeat IPC: 0.217158 cumulative IPC: 0.262932 (Simulation time: 9 hr 52 min 28 sec) 
Heartbeat CPU 0 instructions: 1920000003 cycles: 5538373302 heartbeat IPC: 0.216529 cumulative IPC: 0.262536 (Simulation time: 9 hr 56 min 57 sec) 
Heartbeat CPU 0 instructions: 1930000001 cycles: 5584131984 heartbeat IPC: 0.218538 cumulative IPC: 0.262166 (Simulation time: 10 hr 1 min 23 sec) 
Heartbeat CPU 0 instructions: 1940000001 cycles: 5630054954 heartbeat IPC: 0.217756 cumulative IPC: 0.261796 (Simulation time: 10 hr 5 min 50 sec) 
Heartbeat CPU 0 instructions: 1950000000 cycles: 5676730781 heartbeat IPC: 0.214244 cumulative IPC: 0.261396 (Simulation time: 10 hr 10 min 20 sec) 
Heartbeat CPU 0 instructions: 1960000002 cycles: 5722232753 heartbeat IPC: 0.219771 cumulative IPC: 0.261057 (Simulation time: 10 hr 14 min 44 sec) 
Heartbeat CPU 0 instructions: 1970000000 cycles: 5769351413 heartbeat IPC: 0.21223 cumulative IPC: 0.260649 (Simulation time: 10 hr 19 min 17 sec) 
Heartbeat CPU 0 instructions: 1980000002 cycles: 5816766904 heartbeat IPC: 0.210902 cumulative IPC: 0.260234 (Simulation time: 10 hr 23 min 54 sec) 
Heartbeat CPU 0 instructions: 1990000000 cycles: 5864554033 heartbeat IPC: 0.209261 cumulative IPC: 0.259809 (Simulation time: 10 hr 28 min 33 sec) 
*** Reached end of trace: traces/619.lbm_s-4268B.champsimtrace.xz
Heartbeat CPU 0 instructions: 2000000002 cycles: 5911886541 heartbeat IPC: 0.211271 cumulative IPC: 0.259412 (Simulation time: 10 hr 33 min 10 sec) 
Finished CPU 0 instructions: 1500000004 cycles: 5782304720 cumulative IPC: 0.259412 (Simulation time: 10 hr 33 min 10 sec) 

ChampSim completed all CPUs

Region of Interest Statistics

CPU 0 cumulative IPC: 0.259412 instructions: 1500000004 cycles: 5782304720
cpu0_DTLB TOTAL     ACCESS:  245794270  HIT:  244164391  MISS:    1629879
cpu0_DTLB LOAD      ACCESS:  115832635  HIT:  115611311  MISS:     221324
cpu0_DTLB RFO       ACCESS:  129961635  HIT:  128553080  MISS:    1408555
cpu0_DTLB PREFETCH  ACCESS:          0  HIT:          0  MISS:          0
cpu0_DTLB WRITEBACK ACCESS:          0  HIT:          0  MISS:          0
cpu0_DTLB TRANSLATION ACCESS:          0  HIT:          0  MISS:          0
cpu0_DTLB PREFETCH  REQUESTED:          0  ISSUED:          0  USEFUL:          0  USELESS:          0
cpu0_DTLB AVERAGE MISS LATENCY: 423.992 cycles
cpu0_ITLB TOTAL     ACCESS:   20161539  HIT:   20161538  MISS:          1
cpu0_ITLB LOAD      ACCESS:   20161539  HIT:   20161538  MISS:          1
cpu0_ITLB RFO       ACCESS:          0  HIT:          0  MISS:          0
cpu0_ITLB PREFETCH  ACCESS:          0  HIT:          0  MISS:          0
cpu0_ITLB WRITEBACK ACCESS:          0  HIT:          0  MISS:          0
cpu0_ITLB TRANSLATION ACCESS:          0  HIT:          0  MISS:          0
cpu0_ITLB PREFETCH  REQUESTED:          0  ISSUED:          0  USEFUL:          0  USELESS:          0
cpu0_ITLB AVERAGE MISS LATENCY: 1910 cycles
cpu0_L1I TOTAL     ACCESS:   31716642  HIT:   31716639  MISS:          3
cpu0_L1I LOAD      ACCESS:   31716642  HIT:   31716639  MISS:          3
cpu0_L1I RFO       ACCESS:          0  HIT:          0  MISS:          0
cpu0_L1I PREFETCH  ACCESS:          0  HIT:          0  MISS:          0
cpu0_L1I WRITEBACK ACCESS:          0  HIT:          0  MISS:          0
cpu0_L1I TRANSLATION ACCESS:          0  HIT:          0  MISS:          0
cpu0_L1I PREFETCH  REQUESTED:          0  ISSUED:          0  USEFUL:          0  USELESS:          0
cpu0_L1I AVERAGE MISS LATENCY: 1204 cycles
cpu0_STLB TOTAL     ACCESS:    1629880  HIT:     744828  MISS:     885052
cpu0_STLB LOAD      ACCESS:     221325  HIT:          1  MISS:     221324
cpu0_STLB RFO       ACCESS:    1408555  HIT:     744827  MISS:     663728
cpu0_STLB PREFETCH  ACCESS:          0  HIT:          0  MISS:          0
cpu0_STLB WRITEBACK ACCESS:          0  HIT:          0  MISS:          0
cpu0_STLB TRANSLATION ACCESS:          0  HIT:          0  MISS:          0
cpu0_STLB PREFETCH  REQUESTED:          0  ISSUED:          0  USEFUL:          0  USELESS:          0
cpu0_STLB AVERAGE MISS LATENCY: 764.096 cycles
cpu0_L1D TOTAL     ACCESS:  339389849  HIT:  245957437  MISS:   93432412
cpu0_L1D LOAD      ACCESS:   85826350  HIT:   71668741  MISS:   14157609
cpu0_L1D RFO       ACCESS:  252729336  HIT:  173454925  MISS:   79274411
cpu0_L1D PREFETCH  ACCESS:          0  HIT:          0  MISS:          0
cpu0_L1D WRITEBACK ACCESS:          0  HIT:          0  MISS:          0
cpu0_L1D TRANSLATION ACCESS:     834163  HIT:     833771  MISS:        392
cpu0_L1D PREFETCH  REQUESTED:          0  ISSUED:          0  USEFUL:          0  USELESS:          0
cpu0_L1D AVERAGE MISS LATENCY: 696.124 cycles
cpu0_L2C TOTAL     ACCESS:  172706804  HIT:  114762392  MISS:   57944412
cpu0_L2C LOAD      ACCESS:   14157612  HIT:        571  MISS:   14157041
cpu0_L2C RFO       ACCESS:   79274387  HIT:   35490137  MISS:   43784250
cpu0_L2C PREFETCH  ACCESS:          0  HIT:          0  MISS:          0
cpu0_L2C WRITEBACK ACCESS:   79274413  HIT:   79271684  MISS:       2729
cpu0_L2C TRANSLATION ACCESS:        392  HIT:          0  MISS:        392
cpu0_L2C PREFETCH  REQUESTED:          0  ISSUED:          0  USEFUL:          0  USELESS:          0
cpu0_L2C AVERAGE MISS LATENCY: 1104.64 cycles
LLC TOTAL     ACCESS:  101726980  HIT:   45099833  MISS:   56627147
LLC LOAD      ACCESS:   14157041  HIT:        437  MISS:   14156604
LLC RFO       ACCESS:   43782795  HIT:    1314801  MISS:   42467994
LLC PREFETCH  ACCESS:          0  HIT:          0  MISS:          0
LLC WRITEBACK ACCESS:   43786752  HIT:   43784595  MISS:       2157
LLC TRANSLATION ACCESS:        392  HIT:          0  MISS:        392
LLC PREFETCH  REQUESTED:          0  ISSUED:          0  USEFUL:          0  USELESS:          0
LLC AVERAGE MISS LATENCY: 1108.85 cycles
~~~~~~~~~~Reuse Distance Profiler output~~~~~~~~~~
0	96048000	8327248
1	32358000	13971856
2	19337456	9620576
3	13858160	5192656
4	19273488	6941168
5	11233472	4694816
6	7854400	3814720
7	5090080	2290848
8	3406944	883568
9	3785392	545440
10	3948272	3470000
11	5130096	3140608
12	1930576	1391408
13	3426320	226288
14	2151104	311200
15	924752	219296
16	842112	80832
17	2072912	1424896
18	928064	156160
19	3539680	2033312
20	1809024	1366048
21	985232	218160
22	1759648	295712
23	1220064	207936
24	2966704	194800
25	889232	55056
26	1804368	55856
27	731920	67696
28	1514640	71712
29	1397408	43200
30	1034976	109584
31	1358064	533168
32	2069008	1341136
33	4857264	3695904
34	2580768	1616048
35	1844144	809872
36	1283920	471632
37	1223136	300816
38	1634912	945088
39	1488352	269648
40	690592	144976
41	566704	130944
42	557824	170096
43	765312	377920
44	882768	439424
45	685056	379456
46	1522816	1221488
47	491968	180800
48	434288	132432
49	408416	131072
50	482944	101392
51	2335024	364032
52	581376	69856
53	689952	320240
54	1383568	832944
55	879168	393088
56	2114288	165280
57	1121984	610848
58	1126720	200240
59	562480	81696
60	884720	79760
61	692768	49648
62	862144	44400
63	302368	67904
64	483728	116400
66	1402944	735552
68	740176	597952
70	391984	256448
72	301776	105264
74	420352	145792
76	269392	79072
78	495696	210272
80	1114672	527104
82	1381744	725632
84	1556128	572352
86	1707216	366800
88	1367376	269280
90	1383520	244704
92	2190672	1197520
94	2743920	1245728
96	1450144	514144
98	1655760	1246512
100	1018880	461904
102	816960	226000
104	371376	81456
106	282464	70864
108	216512	103104
110	211104	76512
112	184224	53872
114	164304	62208
116	222656	50608
118	193520	49568
120	204672	46144
122	130528	49440
124	138624	41072
126	115264	43456
128	207440	79584
132	154544	66672
136	137552	55248
140	139744	47792
144	115728	35200
148	92240	24896
152	91504	30048
156	89696	16480
160	107824	13008
164	120880	11824
168	78128	10576
172	155344	14432
176	1023680	24224
180	1115136	12624
184	820624	8416
188	1811584	9024
192	1513008	11664
196	1533728	6432
200	1100816	4784
204	54592	4320
208	28416	4880
212	18448	5120
216	21840	5984
220	32576	6336
224	43888	9312
228	35504	11504
232	30688	9392
236	30144	7552
240	35632	7600
244	34512	9520
248	27232	8896
252	20880	8064
256	71824	24048
264	71792	20480
272	67184	23488
280	70864	20976
288	64320	21776
296	78128	29072
304	81072	24032
312	68992	24720
320	69520	23520
328	65936	22512
336	72336	30304
344	86768	25168
352	70176	26800
360	62112	23344
368	59728	24496
376	57872	23840
384	76608	21440
392	65456	19392
400	50832	17536
408	49248	18352
416	41136	18032
424	48864	14672
432	53888	11808
440	44672	11744
448	36048	12944
456	28352	9968
464	25872	8000
472	34352	6384
480	26496	6352
488	22736	6384
496	16464	5056
504	13232	3696
512	25840	4336
528	17184	3632
544	10704	3168
560	8496	1872
576	7968	2048
592	5232	1920
608	5104	1792
624	6352	1920
640	4880	2096
656	5600	1632
672	5632	1968
688	3920	1568
704	4736	1056
720	4096	1472
736	3744	1120
752	4656	1072
768	2752	704
784	2240	512
800	2496	528
816	2112	608
832	1984	352
848	1872	480
864	1184	320
880	1168	224
896	816	240
912	768	240
928	624	128
944	560	112
960	384	160
976	320	48
992	224	96
1008	288	128
1024	608	176
1056	704	208
1088	464	160
1120	288	144
1152	352	112
1184	240	80
1216	208	48
1248	96	32
1280	96	64
1312	80	16
1344	64	32
1376	64	16
1408	64	32
1440	16	16
1472	32	0
1504	0	0
1536	16	16
1568	16	16
1600	0	0
1632	0	0
1664	0	0
1696	0	0
1728	0	0
1760	0	0
1792	0	0
1824	0	0
1856	0	0
1888	0	0
1920	0	0
1952	0	0
1984	0	0
2016	0	0
2048	0	0
2112	0	0
2176	0	0
2240	0	0
2304	0	0
2368	0	0
2432	0	0
2496	0	0
2560	0	0
2624	0	0
2688	0	0
2752	0	0
2816	0	0
2880	0	0
2944	0	0
3008	0	0
3072	0	0
3136	0	0
3200	0	0
3264	0	0
3328	0	0
3392	0	0
3456	0	0
3520	0	0
3584	0	0
3648	0	0
3712	0	0
3776	0	0
3840	0	0
3904	0	0
3968	48	0
4032	432	0
4096	500944	0
4224	94688	0
4352	38336	0
4480	33312	0
4608	3968	0
4736	3728	0
4864	4336	0
4992	3536	0
5120	3664	0
5248	4256	0
5376	6016	0
5504	5104	0
5632	5936	0
5760	10048	0
5888	11840	0
6016	17104	0
6144	24592	0
6272	34896	0
6400	48896	0
6528	61568	0
6656	76880	0
6784	87424	0
6912	107856	0
7040	140816	0
7168	178032	0
7296	201136	0
7424	248464	0
7552	298400	0
7680	345472	0
7808	412688	0
7936	460368	0
8064	535392	0
8192	1353616	0
8448	1637216	368
8704	1972688	0
8960	2211392	304
9216	2488016	0
9472	2615184	0
9728	2695424	0
9984	2606384	0
10240	2472992	0
10496	2267968	0
10752	1968496	0
11008	1598768	0
11264	1255136	0
11520	957920	0
11776	746608	0
12032	584080	0
12288	469888	0
12544	376752	0
12800	299376	0
13056	269280	0
13312	226128	0
13568	194016	0
13824	194160	0
14080	185152	0
14336	181072	0
14592	189248	0
14848	193472	0
15104	194160	0
15360	209984	0
15616	228304	0
15872	234880	0
16128	240576	0
16384	542064	0
16896	662128	0
17408	752384	0
17920	900704	0
18432	1277216	0
18944	5363568	0
19456	578608	0
19968	500880	0
20480	463632	0
20992	432048	0
21504	370448	0
22016	295888	0
22528	224960	0
23040	178448	0
23552	130432	0
24064	104000	0
24576	84368	0
25088	66896	0
25600	53536	0
26112	44672	0
26624	38768	0
27136	35872	0
27648	32560	0
28160	30416	0
28672	30544	0
29184	29440	0
29696	28384	0
30208	28224	0
30720	27712	0
31232	29008	0
31744	30528	0
32256	31136	0
32768	60640	0
33792	72640	0
34816	75696	0
35840	89824	0
36864	145152	0
37888	857808	0
38912	3376	0
39936	112	0
40960	0	0
41984	0	0
43008	0	0
44032	0	0
45056	0	0
46080	0	0
47104	0	0
48128	0	0
49152	0	0
50176	0	0
51200	0	0
52224	0	0
53248	0	0
54272	0	0
55296	0	0
56320	0	0
57344	0	0
58368	0	0
59392	0	0
60416	0	0
61440	0	0
62464	0	0
63488	0	0
64512	0	0
65536	0	0
67584	0	0
69632	0	0
71680	0	0
73728	0	0
75776	0	0
77824	0	0
79872	0	0
81920	0	0
83968	0	0
86016	0	0
88064	0	0
90112	0	0
92160	0	0
94208	0	0
96256	0	0
98304	0	0
100352	0	0
102400	0	0
104448	0	0
106496	0	0
108544	0	0
110592	0	0
112640	0	0
114688	0	0
116736	0	0
118784	0	0
120832	0	0
122880	0	0
124928	0	0
126976	0	0
129024	0	0
131072	0	0
135168	0	0
139264	0	0
143360	0	0
147456	0	0
151552	0	0
155648	0	0
159744	0	0
163840	0	0
167936	0	0
172032	0	0
176128	0	0
180224	0	0
184320	0	0
188416	0	0
192512	0	0
196608	0	0
200704	0	0
204800	0	0
208896	0	0
212992	0	0
217088	0	0
221184	0	0
225280	0	0
229376	0	0
233472	0	0
237568	0	0
241664	0	0
245760	0	0
249856	0	0
253952	0	0
258048	0	0
262144	0	0
270336	0	0
278528	0	0
286720	0	0
294912	0	0
303104	0	0
311296	0	0
319488	0	0
327680	0	0
335872	0	0
344064	0	0
352256	0	0
360448	0	0
368640	0	0
376832	0	0
385024	0	0
393216	0	0
401408	0	0
409600	0	0
417792	0	0
425984	0	0
434176	0	0
442368	0	0
450560	0	0
458752	0	0
466944	0	0
475136	0	0
483328	0	0
491520	0	0
499712	0	0
507904	0	0
516096	0	0
524288	0	0
540672	0	0
557056	0	0
573440	0	0
589824	0	0
606208	0	0
622592	0	0
638976	0	0
655360	0	0
671744	0	0
688128	0	0
704512	0	0
720896	0	0
737280	0	0
753664	0	0
770048	0	0
786432	0	0
802816	0	0
819200	0	0
835584	5664	16
851968	2000	0
868352	2480	0
884736	2096	0
901120	2224	0
917504	2352	0
933888	2256	0
950272	2384	0
966656	1968	0
983040	2144	0
999424	2304	0
1015808	2432	0
1032192	2208	0
1048576	4256	0
1081344	4112	0
1114112	4640	0
1146880	4000	0
1179648	4480	0
1212416	4240	0
1245184	4528	0
1277952	4528	0
1310720	4736	0
1343488	4368	0
1376256	4576	0
1409024	4448	0
1441792	4432	0
1474560	4704	0
1507328	5312	0
1540096	29376	0
1572864	171792	0
1605632	305424	0
1638400	157824	0
1671168	255856	0
1703936	143088	0
1736704	114016	0
1769472	98352	0
1802240	129760	0
1835008	137696	0
1867776	328880	0
1900544	896464	0
1933312	2585392	0
1966080	7770880	0
1998848	4552224	0
2031616	3892992	0
2064384	4843632	0
2097152	4392064	0
2162688	275376	0
2228224	245632	0
2293760	190480	0
2359296	193568	0
2424832	364672	0
2490368	157488	0
2555904	140128	0
2621440	129184	0
2686976	136976	0
2752512	133488	0
2818048	143568	0
2883584	147520	0
2949120	136224	0
3014656	134608	0
3080192	135680	0
3145728	124080	0
3211264	133440	0
3276800	133552	0
3342336	146432	0
3407872	162880	0
3473408	209536	0
3538944	234784	0
3604480	287792	0
3670016	486032	0
3735552	1849168	0
3801088	2299456	0
3866624	0	0
3932160	0	0
3997696	0	0
4063232	0	0
4128768	0	0
4194304	0	0
4325376	0	0
4456448	0	0
4587520	0	0
4718592	0	0
4849664	0	0
4980736	0	0
5111808	0	0
5242880	0	0
5373952	0	0
5505024	0	0
5636096	0	0
5767168	0	0
5898240	0	0
6029312	0	0
6160384	0	0
6291456	0	0
6422528	0	0
6553600	0	0
6684672	0	0
6815744	0	0
6946816	0	0
7077888	0	0
7208960	0	0
7340032	0	0
7471104	0	0
7602176	0	0
7733248	0	0
7864320	0	0
7995392	0	0
8126464	0	0
8257536	0	0
8388608	0	0
8650752	0	0
8912896	0	0
9175040	0	0
9437184	0	0
9699328	0	0
9961472	0	0
10223616	0	0
10485760	0	0
10747904	0	0
11010048	0	0
11272192	0	0
11534336	0	0
11796480	0	0
12058624	0	0
12320768	0	0
12582912	0	0
12845056	0	0
13107200	0	0
13369344	0	0
13631488	0	0
13893632	0	0
14155776	0	0
14417920	0	0
14680064	0	0
14942208	0	0
15204352	0	0
15466496	0	0
15728640	0	0
15990784	0	0
16252928	0	0
16515072	0	0
16777216	0	0
17301504	0	0
17825792	0	0
18350080	0	0
18874368	0	0
19398656	0	0
19922944	0	0
20447232	0	0
20971520	0	0
21495808	0	0
22020096	0	0
22544384	0	0
23068672	0	0
23592960	0	0
24117248	0	0
24641536	0	0
25165824	0	0
25690112	0	0
26214400	0	0
26738688	0	0
27262976	0	0
27787264	0	0
28311552	0	0
28835840	0	0
29360128	0	0
29884416	0	0
30408704	0	0
30932992	0	0
31457280	0	0
31981568	0	0
32505856	0	0
33030144	0	0
33554432	0	0
34603008	0	0
35651584	0	0
36700160	0	0
37748736	0	0
38797312	0	0
39845888	0	0
40894464	0	0
41943040	0	0
42991616	0	0
44040192	0	0
45088768	0	0
46137344	0	0
47185920	0	0
48234496	0	0
49283072	0	0
50331648	0	0
51380224	0	0
52428800	0	0
53477376	0	0
54525952	0	0
55574528	0	0
56623104	0	0
57671680	0	0
58720256	0	0
59768832	0	0
60817408	0	0
61865984	0	0
62914560	0	0
63963136	0	0
65011712	0	0
66060288	0	0
67108864	0	0
69206016	0	0
71303168	0	0
73400320	0	0
75497472	0	0
77594624	0	0
79691776	0	0
81788928	0	0
83886080	0	0
85983232	0	0
88080384	0	0
90177536	0	0
92274688	0	0
94371840	0	0
96468992	0	0
98566144	0	0
100663296	0	0
102760448	0	0
104857600	0	0
106954752	0	0
109051904	0	0
111149056	0	0
113246208	0	0
115343360	0	0
117440512	0	0
119537664	0	0
121634816	0	0
123731968	0	0
125829120	0	0
127926272	0	0
130023424	0	0
132120576	0	0
134217728	0	0
138412032	0	0
142606336	0	0
146800640	0	0
150994944	0	0
155189248	0	0
159383552	0	0
163577856	0	0
167772160	0	0
171966464	0	0
176160768	0	0
180355072	0	0
184549376	0	0
188743680	0	0
192937984	0	0
197132288	0	0
201326592	0	0
205520896	0	0
209715200	0	0
213909504	0	0
218103808	0	0
222298112	0	0
226492416	0	0
230686720	0	0
234881024	0	0
239075328	0	0
243269632	0	0
247463936	0	0
251658240	0	0
255852544	0	0
260046848	0	0
264241152	0	0
268435456	0	0
276824064	0	0
285212672	0	0
293601280	0	0
301989888	0	0
310378496	0	0
318767104	0	0
327155712	0	0
335544320	0	0
343932928	0	0
352321536	0	0
360710144	0	0
369098752	0	0
377487360	0	0
385875968	0	0
394264576	0	0
402653184	0	0
411041792	0	0
419430400	0	0
427819008	0	0
436207616	0	0
444596224	0	0
452984832	0	0
461373440	0	0
469762048	0	0
478150656	0	0
486539264	0	0
494927872	0	0
503316480	0	0
511705088	0	0
520093696	0	0
528482304	0	0
536870912	0	0
553648128	0	0
570425344	0	0
587202560	0	0
603979776	0	0
620756992	0	0
637534208	0	0
654311424	0	0
671088640	0	0
687865856	0	0
704643072	0	0
721420288	0	0
738197504	0	0
754974720	0	0
771751936	0	0
788529152	0	0
805306368	0	0
822083584	0	0
838860800	0	0
855638016	0	0
872415232	0	0
889192448	0	0
905969664	0	0
922746880	0	0
939524096	0	0
956301312	0	0
973078528	0	0
989855744	0	0
1006632960	0	0
1023410176	0	0
1040187392	0	0
1056964608	0	0
1073741824	0	0
1107296256	0	0
1140850688	0	0
1174405120	0	0
1207959552	0	0
1241513984	0	0
1275068416	0	0
1308622848	0	0
1342177280	0	0
1375731712	0	0
1409286144	0	0
1442840576	0	0
1476395008	0	0
1509949440	0	0
1543503872	0	0
1577058304	0	0
1610612736	0	0
1644167168	0	0
1677721600	0	0
1711276032	0	0
1744830464	0	0
1778384896	0	0
1811939328	0	0
1845493760	0	0
1879048192	0	0
1912602624	0	0
1946157056	0	0
1979711488	0	0
2013265920	0	0
2046820352	0	0
2080374784	0	0
2113929216	0	0
2147483648	0	0
2214592512	0	0
2281701376	0	0
2348810240	0	0
2415919104	0	0
2483027968	0	0
2550136832	0	0
2617245696	0	0
2684354560	0	0
2751463424	0	0
2818572288	0	0
2885681152	0	0
2952790016	0	0
3019898880	0	0
3087007744	0	0
3154116608	0	0
3221225472	0	0
3288334336	0	0
3355443200	0	0
3422552064	0	0
3489660928	0	0
3556769792	0	0
3623878656	0	0
3690987520	0	0
3758096384	0	0
3825205248	0	0
3892314112	0	0
3959422976	0	0
4026531840	0	0
4093640704	0	0
4160749568	0	0
4227858432	0	0
~~~~~~~~~~Reuse Distance Profiler output end~~~~~~~~~~

DRAM Statistics
 CHANNEL 0
 RQ ROW_BUFFER_HIT:    1430043  ROW_BUFFER_MISS:   55194947
 DBUS AVG_CONGESTED_CYCLE:    4.00296
 WQ ROW_BUFFER_HIT:     788781  ROW_BUFFER_MISS:   41681226  FULL:          0


CPU 0 Branch Prediction Accuracy: 97.0671% MPKI: 0.450838 Average ROB Occupancy at Mispredict: 255.101
Branch type MPKI
BRANCH_DIRECT_JUMP: 2e-06
BRANCH_INDIRECT: 0
BRANCH_CONDITIONAL: 0.450833
BRANCH_DIRECT_CALL: 1.33333e-06
BRANCH_INDIRECT_CALL: 0
BRANCH_RETURN: 1.33333e-06

