
*** ChampSim Multicore Out-of-Order Simulator ***

Warmup Instructions: 500000000
Simulation Instructions: 1500000000
Number of CPUs: 1
Off-chip DRAM Size: 4 GiB Channels: 1 Width: 64-bit Data Rate: 3200 MT/s

VirtualMemory physical capacity: 8588881920 num_ppages: 2096895
VirtualMemory page size: 4096 log2_page_size: 12

CPU 0 runs traces/619.lbm_s-2676B.champsimtrace.xz
CPU 0 Bimodal branch predictor
Basic BTB sets: 1024 ways: 8 indirect buffer size: 4096 RAS size: 64
Initializing LRU.
Initializing LRU.
Initializing LRU.
Initializing LRU.
Initializing rdLRU.
Initializing LRU.
Initializing LRU.
Heartbeat CPU 0 instructions: 10000002 cycles: 2591234 heartbeat IPC: 3.85917 cumulative IPC: 3.85917 (Simulation time: 0 hr 0 min 53 sec) 
Heartbeat CPU 0 instructions: 20000002 cycles: 5177353 heartbeat IPC: 3.8668 cumulative IPC: 3.86298 (Simulation time: 0 hr 1 min 53 sec) 
Heartbeat CPU 0 instructions: 30000003 cycles: 7758318 heartbeat IPC: 3.87452 cumulative IPC: 3.86682 (Simulation time: 0 hr 2 min 47 sec) 
Heartbeat CPU 0 instructions: 40000000 cycles: 10329434 heartbeat IPC: 3.88936 cumulative IPC: 3.87243 (Simulation time: 0 hr 3 min 35 sec) 
Heartbeat CPU 0 instructions: 50000003 cycles: 12892216 heartbeat IPC: 3.90201 cumulative IPC: 3.87831 (Simulation time: 0 hr 4 min 26 sec) 
Heartbeat CPU 0 instructions: 60000003 cycles: 15446137 heartbeat IPC: 3.91555 cumulative IPC: 3.88447 (Simulation time: 0 hr 5 min 4 sec) 
Heartbeat CPU 0 instructions: 70000003 cycles: 17992759 heartbeat IPC: 3.92677 cumulative IPC: 3.89045 (Simulation time: 0 hr 5 min 43 sec) 
Heartbeat CPU 0 instructions: 80000003 cycles: 20531959 heartbeat IPC: 3.93825 cumulative IPC: 3.89636 (Simulation time: 0 hr 6 min 36 sec) 
Heartbeat CPU 0 instructions: 90000002 cycles: 23071002 heartbeat IPC: 3.93849 cumulative IPC: 3.901 (Simulation time: 0 hr 7 min 30 sec) 
Heartbeat CPU 0 instructions: 100000003 cycles: 25600953 heartbeat IPC: 3.95265 cumulative IPC: 3.9061 (Simulation time: 0 hr 8 min 24 sec) 
Heartbeat CPU 0 instructions: 110000004 cycles: 28129316 heartbeat IPC: 3.95513 cumulative IPC: 3.91051 (Simulation time: 0 hr 9 min 11 sec) 
Heartbeat CPU 0 instructions: 120000003 cycles: 30649508 heartbeat IPC: 3.96795 cumulative IPC: 3.91523 (Simulation time: 0 hr 9 min 57 sec) 
Heartbeat CPU 0 instructions: 130000002 cycles: 33167296 heartbeat IPC: 3.97174 cumulative IPC: 3.91952 (Simulation time: 0 hr 10 min 34 sec) 
Heartbeat CPU 0 instructions: 140000003 cycles: 35685421 heartbeat IPC: 3.97121 cumulative IPC: 3.92317 (Simulation time: 0 hr 11 min 24 sec) 
Heartbeat CPU 0 instructions: 150000002 cycles: 38197415 heartbeat IPC: 3.9809 cumulative IPC: 3.92697 (Simulation time: 0 hr 12 min 2 sec) 
Heartbeat CPU 0 instructions: 160000003 cycles: 40707961 heartbeat IPC: 3.9832 cumulative IPC: 3.93044 (Simulation time: 0 hr 12 min 44 sec) 
Heartbeat CPU 0 instructions: 170000001 cycles: 43216362 heartbeat IPC: 3.9866 cumulative IPC: 3.9337 (Simulation time: 0 hr 13 min 40 sec) 
Heartbeat CPU 0 instructions: 180000003 cycles: 45727865 heartbeat IPC: 3.98168 cumulative IPC: 3.93633 (Simulation time: 0 hr 14 min 35 sec) 
Heartbeat CPU 0 instructions: 190000000 cycles: 48237474 heartbeat IPC: 3.98468 cumulative IPC: 3.93885 (Simulation time: 0 hr 15 min 30 sec) 
Heartbeat CPU 0 instructions: 200000003 cycles: 50741613 heartbeat IPC: 3.99339 cumulative IPC: 3.94154 (Simulation time: 0 hr 16 min 25 sec) 
Heartbeat CPU 0 instructions: 210000001 cycles: 53249031 heartbeat IPC: 3.98817 cumulative IPC: 3.94373 (Simulation time: 0 hr 17 min 20 sec) 
Heartbeat CPU 0 instructions: 220000000 cycles: 55752587 heartbeat IPC: 3.99432 cumulative IPC: 3.94601 (Simulation time: 0 hr 18 min 3 sec) 
Heartbeat CPU 0 instructions: 230000000 cycles: 58258719 heartbeat IPC: 3.99021 cumulative IPC: 3.94791 (Simulation time: 0 hr 18 min 34 sec) 
Heartbeat CPU 0 instructions: 240000002 cycles: 60761558 heartbeat IPC: 3.99546 cumulative IPC: 3.94987 (Simulation time: 0 hr 19 min 12 sec) 
Heartbeat CPU 0 instructions: 250000003 cycles: 63268227 heartbeat IPC: 3.98936 cumulative IPC: 3.95143 (Simulation time: 0 hr 19 min 52 sec) 
Heartbeat CPU 0 instructions: 260000001 cycles: 65774249 heartbeat IPC: 3.99039 cumulative IPC: 3.95291 (Simulation time: 0 hr 20 min 22 sec) 
Heartbeat CPU 0 instructions: 270000000 cycles: 68275574 heartbeat IPC: 3.99788 cumulative IPC: 3.95456 (Simulation time: 0 hr 20 min 53 sec) 
Heartbeat CPU 0 instructions: 280000003 cycles: 70780975 heartbeat IPC: 3.99138 cumulative IPC: 3.95587 (Simulation time: 0 hr 21 min 26 sec) 
Heartbeat CPU 0 instructions: 290000000 cycles: 73281380 heartbeat IPC: 3.99935 cumulative IPC: 3.95735 (Simulation time: 0 hr 22 min 20 sec) 
Heartbeat CPU 0 instructions: 300000003 cycles: 75786425 heartbeat IPC: 3.99195 cumulative IPC: 3.95849 (Simulation time: 0 hr 23 min 14 sec) 
Heartbeat CPU 0 instructions: 310000003 cycles: 78286473 heartbeat IPC: 3.99992 cumulative IPC: 3.95982 (Simulation time: 0 hr 24 min 9 sec) 
Heartbeat CPU 0 instructions: 320000003 cycles: 80791513 heartbeat IPC: 3.99195 cumulative IPC: 3.96081 (Simulation time: 0 hr 24 min 54 sec) 
Heartbeat CPU 0 instructions: 330000003 cycles: 83291513 heartbeat IPC: 4 cumulative IPC: 3.96199 (Simulation time: 0 hr 25 min 26 sec) 
Heartbeat CPU 0 instructions: 340000002 cycles: 85796596 heartbeat IPC: 3.99188 cumulative IPC: 3.96286 (Simulation time: 0 hr 25 min 59 sec) 
Heartbeat CPU 0 instructions: 350000002 cycles: 88296596 heartbeat IPC: 4 cumulative IPC: 3.96391 (Simulation time: 0 hr 26 min 30 sec) 
Heartbeat CPU 0 instructions: 360000002 cycles: 90801619 heartbeat IPC: 3.99198 cumulative IPC: 3.96469 (Simulation time: 0 hr 27 min 1 sec) 
Heartbeat CPU 0 instructions: 370000002 cycles: 93306601 heartbeat IPC: 3.99204 cumulative IPC: 3.96542 (Simulation time: 0 hr 27 min 32 sec) 
Heartbeat CPU 0 instructions: 380000002 cycles: 95806601 heartbeat IPC: 4 cumulative IPC: 3.96632 (Simulation time: 0 hr 28 min 3 sec) 
Heartbeat CPU 0 instructions: 390000002 cycles: 98311648 heartbeat IPC: 3.99194 cumulative IPC: 3.96698 (Simulation time: 0 hr 28 min 34 sec) 
Heartbeat CPU 0 instructions: 400000002 cycles: 100811648 heartbeat IPC: 4 cumulative IPC: 3.9678 (Simulation time: 0 hr 29 min 5 sec) 
Heartbeat CPU 0 instructions: 410000003 cycles: 103316652 heartbeat IPC: 3.99201 cumulative IPC: 3.96838 (Simulation time: 0 hr 29 min 49 sec) 
Heartbeat CPU 0 instructions: 420000003 cycles: 105816652 heartbeat IPC: 4 cumulative IPC: 3.96913 (Simulation time: 0 hr 30 min 44 sec) 
Heartbeat CPU 0 instructions: 430000002 cycles: 108321753 heartbeat IPC: 3.99185 cumulative IPC: 3.96966 (Simulation time: 0 hr 31 min 32 sec) 
Heartbeat CPU 0 instructions: 440000002 cycles: 110821753 heartbeat IPC: 4 cumulative IPC: 3.97034 (Simulation time: 0 hr 32 min 5 sec) 
Heartbeat CPU 0 instructions: 450000002 cycles: 113326760 heartbeat IPC: 3.992 cumulative IPC: 3.97082 (Simulation time: 0 hr 32 min 38 sec) 
Heartbeat CPU 0 instructions: 460000002 cycles: 115826760 heartbeat IPC: 4 cumulative IPC: 3.97145 (Simulation time: 0 hr 33 min 11 sec) 
Heartbeat CPU 0 instructions: 470000001 cycles: 118331825 heartbeat IPC: 3.99191 cumulative IPC: 3.97188 (Simulation time: 0 hr 33 min 44 sec) 
Heartbeat CPU 0 instructions: 480000001 cycles: 120831825 heartbeat IPC: 4 cumulative IPC: 3.97246 (Simulation time: 0 hr 34 min 17 sec) 
Heartbeat CPU 0 instructions: 490000002 cycles: 123336917 heartbeat IPC: 3.99187 cumulative IPC: 3.97286 (Simulation time: 0 hr 34 min 50 sec) 
Heartbeat CPU 0 instructions: 500000001 cycles: 126211430 heartbeat IPC: 3.47885 cumulative IPC: 3.96161 (Simulation time: 0 hr 35 min 35 sec) 

Warmup complete CPU 0 instructions: 500000001 cycles: 126211430 (Simulation time: 0 hr 35 min 35 sec) 

Heartbeat CPU 0 instructions: 510000002 cycles: 195586157 heartbeat IPC: 0.144145 cumulative IPC: 0.144145 (Simulation time: 0 hr 45 min 8 sec) 
Heartbeat CPU 0 instructions: 520000000 cycles: 221781346 heartbeat IPC: 0.381749 cumulative IPC: 0.209271 (Simulation time: 0 hr 47 min 34 sec) 
Heartbeat CPU 0 instructions: 530000002 cycles: 245417705 heartbeat IPC: 0.423077 cumulative IPC: 0.251665 (Simulation time: 0 hr 50 min 34 sec) 
Heartbeat CPU 0 instructions: 540000003 cycles: 269317963 heartbeat IPC: 0.418406 cumulative IPC: 0.279512 (Simulation time: 0 hr 54 min 26 sec) 
Heartbeat CPU 0 instructions: 550000002 cycles: 292856284 heartbeat IPC: 0.424839 cumulative IPC: 0.300039 (Simulation time: 0 hr 57 min 56 sec) 
Heartbeat CPU 0 instructions: 560000001 cycles: 316840607 heartbeat IPC: 0.416939 cumulative IPC: 0.314747 (Simulation time: 1 hr 0 min 8 sec) 
Heartbeat CPU 0 instructions: 570000003 cycles: 340442374 heartbeat IPC: 0.423697 cumulative IPC: 0.32675 (Simulation time: 1 hr 2 min 55 sec) 
Heartbeat CPU 0 instructions: 580000004 cycles: 364409293 heartbeat IPC: 0.417242 cumulative IPC: 0.335855 (Simulation time: 1 hr 5 min 47 sec) 
Heartbeat CPU 0 instructions: 590000001 cycles: 388032229 heartbeat IPC: 0.423317 cumulative IPC: 0.343747 (Simulation time: 1 hr 8 min 29 sec) 
Heartbeat CPU 0 instructions: 600000002 cycles: 411958922 heartbeat IPC: 0.417943 cumulative IPC: 0.349959 (Simulation time: 1 hr 12 min 1 sec) 
Heartbeat CPU 0 instructions: 610000001 cycles: 435613710 heartbeat IPC: 0.422747 cumulative IPC: 0.355524 (Simulation time: 1 hr 15 min 38 sec) 
Heartbeat CPU 0 instructions: 620000000 cycles: 459522538 heartbeat IPC: 0.418256 cumulative IPC: 0.360024 (Simulation time: 1 hr 18 min 47 sec) 
Heartbeat CPU 0 instructions: 630000002 cycles: 483049267 heartbeat IPC: 0.425049 cumulative IPC: 0.364311 (Simulation time: 1 hr 20 min 48 sec) 
Heartbeat CPU 0 instructions: 640000000 cycles: 507071171 heartbeat IPC: 0.416287 cumulative IPC: 0.367589 (Simulation time: 1 hr 22 min 56 sec) 
Heartbeat CPU 0 instructions: 650000004 cycles: 531014315 heartbeat IPC: 0.417656 cumulative IPC: 0.370551 (Simulation time: 1 hr 25 min 5 sec) 
Heartbeat CPU 0 instructions: 660000000 cycles: 554611295 heartbeat IPC: 0.423783 cumulative IPC: 0.373483 (Simulation time: 1 hr 27 min 48 sec) 
Heartbeat CPU 0 instructions: 670000002 cycles: 578878264 heartbeat IPC: 0.412083 cumulative IPC: 0.375552 (Simulation time: 1 hr 29 min 56 sec) 
Heartbeat CPU 0 instructions: 680000002 cycles: 604384333 heartbeat IPC: 0.392064 cumulative IPC: 0.376433 (Simulation time: 1 hr 32 min 11 sec) 
Heartbeat CPU 0 instructions: 690000002 cycles: 632584550 heartbeat IPC: 0.354607 cumulative IPC: 0.375217 (Simulation time: 1 hr 35 min 11 sec) 
Heartbeat CPU 0 instructions: 700000004 cycles: 663465604 heartbeat IPC: 0.323823 cumulative IPC: 0.372263 (Simulation time: 1 hr 40 min 22 sec) 
Heartbeat CPU 0 instructions: 710000001 cycles: 699326762 heartbeat IPC: 0.278853 cumulative IPC: 0.366418 (Simulation time: 1 hr 44 min 5 sec) 
Heartbeat CPU 0 instructions: 720000001 cycles: 741596378 heartbeat IPC: 0.236577 cumulative IPC: 0.3575 (Simulation time: 1 hr 49 min 3 sec) 
Heartbeat CPU 0 instructions: 730000002 cycles: 795536917 heartbeat IPC: 0.185389 cumulative IPC: 0.34363 (Simulation time: 1 hr 54 min 50 sec) 
Heartbeat CPU 0 instructions: 740000001 cycles: 856021737 heartbeat IPC: 0.165331 cumulative IPC: 0.328853 (Simulation time: 2 hr 4 min 31 sec) 
Heartbeat CPU 0 instructions: 750000000 cycles: 917723014 heartbeat IPC: 0.162071 cumulative IPC: 0.315851 (Simulation time: 2 hr 11 min 12 sec) 
Heartbeat CPU 0 instructions: 760000004 cycles: 976397505 heartbeat IPC: 0.170432 cumulative IPC: 0.305815 (Simulation time: 2 hr 20 min 9 sec) 
Heartbeat CPU 0 instructions: 770000004 cycles: 1031518164 heartbeat IPC: 0.18142 cumulative IPC: 0.298241 (Simulation time: 2 hr 27 min 29 sec) 
Heartbeat CPU 0 instructions: 780000003 cycles: 1082307592 heartbeat IPC: 0.196891 cumulative IPC: 0.292858 (Simulation time: 2 hr 34 min 7 sec) 
Heartbeat CPU 0 instructions: 790000001 cycles: 1131581824 heartbeat IPC: 0.202946 cumulative IPC: 0.288451 (Simulation time: 2 hr 39 min 5 sec) 
Heartbeat CPU 0 instructions: 800000002 cycles: 1178132486 heartbeat IPC: 0.21482 cumulative IPC: 0.285193 (Simulation time: 2 hr 43 min 41 sec) 
Heartbeat CPU 0 instructions: 810000003 cycles: 1224694816 heartbeat IPC: 0.214766 cumulative IPC: 0.282207 (Simulation time: 2 hr 48 min 17 sec) 
Heartbeat CPU 0 instructions: 820000001 cycles: 1270599947 heartbeat IPC: 0.217841 cumulative IPC: 0.279625 (Simulation time: 2 hr 52 min 45 sec) 
Heartbeat CPU 0 instructions: 830000002 cycles: 1316359619 heartbeat IPC: 0.218533 cumulative IPC: 0.277276 (Simulation time: 2 hr 57 min 15 sec) 
Heartbeat CPU 0 instructions: 840000004 cycles: 1361754585 heartbeat IPC: 0.220289 cumulative IPC: 0.275183 (Simulation time: 3 hr 1 min 39 sec) 
Heartbeat CPU 0 instructions: 850000000 cycles: 1406990249 heartbeat IPC: 0.221064 cumulative IPC: 0.273271 (Simulation time: 3 hr 6 min 2 sec) 
Heartbeat CPU 0 instructions: 860000001 cycles: 1453263449 heartbeat IPC: 0.216108 cumulative IPC: 0.271278 (Simulation time: 3 hr 10 min 32 sec) 
Heartbeat CPU 0 instructions: 870000002 cycles: 1500920143 heartbeat IPC: 0.209834 cumulative IPC: 0.269148 (Simulation time: 3 hr 15 min 11 sec) 
Heartbeat CPU 0 instructions: 880000002 cycles: 1549426546 heartbeat IPC: 0.206158 cumulative IPC: 0.267001 (Simulation time: 3 hr 19 min 55 sec) 
Heartbeat CPU 0 instructions: 890000002 cycles: 1597390231 heartbeat IPC: 0.208491 cumulative IPC: 0.265094 (Simulation time: 3 hr 24 min 36 sec) 
Heartbeat CPU 0 instructions: 900000002 cycles: 1645746623 heartbeat IPC: 0.206798 cumulative IPC: 0.263238 (Simulation time: 3 hr 29 min 21 sec) 
Heartbeat CPU 0 instructions: 910000002 cycles: 1692649507 heartbeat IPC: 0.213206 cumulative IPC: 0.26174 (Simulation time: 3 hr 33 min 56 sec) 
Heartbeat CPU 0 instructions: 920000000 cycles: 1739867174 heartbeat IPC: 0.211785 cumulative IPC: 0.260279 (Simulation time: 3 hr 38 min 34 sec) 
Heartbeat CPU 0 instructions: 930000000 cycles: 1787286223 heartbeat IPC: 0.210886 cumulative IPC: 0.258869 (Simulation time: 3 hr 43 min 13 sec) 
Heartbeat CPU 0 instructions: 940000004 cycles: 1834400339 heartbeat IPC: 0.212251 cumulative IPC: 0.257583 (Simulation time: 3 hr 47 min 50 sec) 
Heartbeat CPU 0 instructions: 950000000 cycles: 1881367627 heartbeat IPC: 0.212914 cumulative IPC: 0.256387 (Simulation time: 3 hr 52 min 24 sec) 
Heartbeat CPU 0 instructions: 960000000 cycles: 1928228071 heartbeat IPC: 0.2134 cumulative IPC: 0.25527 (Simulation time: 3 hr 56 min 56 sec) 
Heartbeat CPU 0 instructions: 970000004 cycles: 1974918082 heartbeat IPC: 0.214179 cumulative IPC: 0.254232 (Simulation time: 4 hr 1 min 30 sec) 
Heartbeat CPU 0 instructions: 980000001 cycles: 2022637143 heartbeat IPC: 0.20956 cumulative IPC: 0.253108 (Simulation time: 4 hr 6 min 11 sec) 
Heartbeat CPU 0 instructions: 990000000 cycles: 2070781228 heartbeat IPC: 0.20771 cumulative IPC: 0.251984 (Simulation time: 4 hr 10 min 55 sec) 
Heartbeat CPU 0 instructions: 1000000004 cycles: 2118500230 heartbeat IPC: 0.20956 cumulative IPC: 0.250968 (Simulation time: 4 hr 15 min 36 sec) 
Heartbeat CPU 0 instructions: 1010000003 cycles: 2165859547 heartbeat IPC: 0.211152 cumulative IPC: 0.250043 (Simulation time: 4 hr 20 min 13 sec) 
Heartbeat CPU 0 instructions: 1020000003 cycles: 2212183963 heartbeat IPC: 0.215869 cumulative IPC: 0.249284 (Simulation time: 4 hr 24 min 43 sec) 
Heartbeat CPU 0 instructions: 1030000000 cycles: 2259390545 heartbeat IPC: 0.211835 cumulative IPC: 0.248455 (Simulation time: 4 hr 29 min 18 sec) 
Heartbeat CPU 0 instructions: 1040000001 cycles: 2306148461 heartbeat IPC: 0.213868 cumulative IPC: 0.247714 (Simulation time: 4 hr 33 min 49 sec) 
Heartbeat CPU 0 instructions: 1050000001 cycles: 2353955038 heartbeat IPC: 0.209176 cumulative IPC: 0.246887 (Simulation time: 4 hr 38 min 29 sec) 
Heartbeat CPU 0 instructions: 1060000000 cycles: 2401561967 heartbeat IPC: 0.210053 cumulative IPC: 0.246116 (Simulation time: 4 hr 43 min 6 sec) 
Heartbeat CPU 0 instructions: 1070000001 cycles: 2448541238 heartbeat IPC: 0.21286 cumulative IPC: 0.245443 (Simulation time: 4 hr 47 min 39 sec) 
Heartbeat CPU 0 instructions: 1080000003 cycles: 2495758576 heartbeat IPC: 0.211787 cumulative IPC: 0.244773 (Simulation time: 4 hr 52 min 15 sec) 
Heartbeat CPU 0 instructions: 1090000003 cycles: 2543910086 heartbeat IPC: 0.207678 cumulative IPC: 0.244034 (Simulation time: 4 hr 56 min 56 sec) 
Heartbeat CPU 0 instructions: 1100000002 cycles: 2591814086 heartbeat IPC: 0.208751 cumulative IPC: 0.243348 (Simulation time: 5 hr 1 min 37 sec) 
Heartbeat CPU 0 instructions: 1110000003 cycles: 2640177640 heartbeat IPC: 0.206767 cumulative IPC: 0.242644 (Simulation time: 5 hr 6 min 23 sec) 
Heartbeat CPU 0 instructions: 1120000004 cycles: 2687711466 heartbeat IPC: 0.210377 cumulative IPC: 0.242046 (Simulation time: 5 hr 11 min 2 sec) 
Heartbeat CPU 0 instructions: 1130000001 cycles: 2734970937 heartbeat IPC: 0.211598 cumulative IPC: 0.241494 (Simulation time: 5 hr 15 min 39 sec) 
Heartbeat CPU 0 instructions: 1140000001 cycles: 2782785540 heartbeat IPC: 0.209141 cumulative IPC: 0.240912 (Simulation time: 5 hr 20 min 20 sec) 
Heartbeat CPU 0 instructions: 1150000000 cycles: 2831071187 heartbeat IPC: 0.207101 cumulative IPC: 0.240308 (Simulation time: 5 hr 25 min 4 sec) 
Heartbeat CPU 0 instructions: 1160000004 cycles: 2878478780 heartbeat IPC: 0.210937 cumulative IPC: 0.239802 (Simulation time: 5 hr 29 min 41 sec) 
Heartbeat CPU 0 instructions: 1170000001 cycles: 2925474136 heartbeat IPC: 0.212787 cumulative IPC: 0.239349 (Simulation time: 5 hr 34 min 15 sec) 
Heartbeat CPU 0 instructions: 1180000004 cycles: 2971187723 heartbeat IPC: 0.218753 cumulative IPC: 0.239018 (Simulation time: 5 hr 38 min 40 sec) 
Heartbeat CPU 0 instructions: 1190000003 cycles: 3018670800 heartbeat IPC: 0.210601 cumulative IPC: 0.238551 (Simulation time: 5 hr 43 min 17 sec) 
Heartbeat CPU 0 instructions: 1200000001 cycles: 3065535148 heartbeat IPC: 0.213382 cumulative IPC: 0.23815 (Simulation time: 5 hr 47 min 50 sec) 
Heartbeat CPU 0 instructions: 1210000003 cycles: 3112454388 heartbeat IPC: 0.213132 cumulative IPC: 0.237757 (Simulation time: 5 hr 52 min 24 sec) 
Heartbeat CPU 0 instructions: 1220000001 cycles: 3160717340 heartbeat IPC: 0.207198 cumulative IPC: 0.237271 (Simulation time: 5 hr 57 min 6 sec) 
Heartbeat CPU 0 instructions: 1230000002 cycles: 3209360136 heartbeat IPC: 0.20558 cumulative IPC: 0.236771 (Simulation time: 6 hr 1 min 52 sec) 
Heartbeat CPU 0 instructions: 1240000003 cycles: 3259701245 heartbeat IPC: 0.198645 cumulative IPC: 0.236158 (Simulation time: 6 hr 6 min 50 sec) 
Heartbeat CPU 0 instructions: 1250000002 cycles: 3309262660 heartbeat IPC: 0.20177 cumulative IPC: 0.235623 (Simulation time: 6 hr 11 min 43 sec) 
Heartbeat CPU 0 instructions: 1260000003 cycles: 3358367599 heartbeat IPC: 0.203646 cumulative IPC: 0.235137 (Simulation time: 6 hr 16 min 31 sec) 
Heartbeat CPU 0 instructions: 1270000000 cycles: 3407032580 heartbeat IPC: 0.205487 cumulative IPC: 0.234697 (Simulation time: 6 hr 21 min 17 sec) 
Heartbeat CPU 0 instructions: 1280000002 cycles: 3454527257 heartbeat IPC: 0.21055 cumulative IPC: 0.234353 (Simulation time: 6 hr 25 min 56 sec) 
Heartbeat CPU 0 instructions: 1290000002 cycles: 3501377915 heartbeat IPC: 0.213444 cumulative IPC: 0.234063 (Simulation time: 6 hr 30 min 32 sec) 
Heartbeat CPU 0 instructions: 1300000003 cycles: 3548446283 heartbeat IPC: 0.212457 cumulative IPC: 0.233765 (Simulation time: 6 hr 35 min 9 sec) 
Heartbeat CPU 0 instructions: 1310000004 cycles: 3595297645 heartbeat IPC: 0.213441 cumulative IPC: 0.233491 (Simulation time: 6 hr 39 min 43 sec) 
Heartbeat CPU 0 instructions: 1320000000 cycles: 3641278871 heartbeat IPC: 0.21748 cumulative IPC: 0.233281 (Simulation time: 6 hr 44 min 11 sec) 
Heartbeat CPU 0 instructions: 1330000004 cycles: 3686983237 heartbeat IPC: 0.218798 cumulative IPC: 0.233096 (Simulation time: 6 hr 48 min 37 sec) 
Heartbeat CPU 0 instructions: 1340000001 cycles: 3732772603 heartbeat IPC: 0.218391 cumulative IPC: 0.232909 (Simulation time: 6 hr 53 min 3 sec) 
Heartbeat CPU 0 instructions: 1350000001 cycles: 3779893832 heartbeat IPC: 0.212219 cumulative IPC: 0.232642 (Simulation time: 6 hr 57 min 38 sec) 
Heartbeat CPU 0 instructions: 1360000001 cycles: 3827163303 heartbeat IPC: 0.211553 cumulative IPC: 0.232373 (Simulation time: 7 hr 2 min 15 sec) 
Heartbeat CPU 0 instructions: 1370000000 cycles: 3875104885 heartbeat IPC: 0.208587 cumulative IPC: 0.232068 (Simulation time: 7 hr 6 min 56 sec) 
Heartbeat CPU 0 instructions: 1380000002 cycles: 3922811781 heartbeat IPC: 0.209613 cumulative IPC: 0.231786 (Simulation time: 7 hr 11 min 36 sec) 
Heartbeat CPU 0 instructions: 1390000001 cycles: 3969634039 heartbeat IPC: 0.213574 cumulative IPC: 0.231564 (Simulation time: 7 hr 16 min 10 sec) 
Heartbeat CPU 0 instructions: 1400000000 cycles: 4017568271 heartbeat IPC: 0.208619 cumulative IPC: 0.231282 (Simulation time: 7 hr 20 min 51 sec) 
Heartbeat CPU 0 instructions: 1410000004 cycles: 4065270035 heartbeat IPC: 0.209636 cumulative IPC: 0.23102 (Simulation time: 7 hr 25 min 30 sec) 
Heartbeat CPU 0 instructions: 1420000004 cycles: 4111247015 heartbeat IPC: 0.2175 cumulative IPC: 0.230864 (Simulation time: 7 hr 29 min 56 sec) 
Heartbeat CPU 0 instructions: 1430000000 cycles: 4157145930 heartbeat IPC: 0.21787 cumulative IPC: 0.230716 (Simulation time: 7 hr 34 min 22 sec) 
Heartbeat CPU 0 instructions: 1440000000 cycles: 4202462370 heartbeat IPC: 0.22067 cumulative IPC: 0.230604 (Simulation time: 7 hr 38 min 44 sec) 
Heartbeat CPU 0 instructions: 1450000002 cycles: 4247074611 heartbeat IPC: 0.224154 cumulative IPC: 0.230534 (Simulation time: 7 hr 43 min 2 sec) 
Heartbeat CPU 0 instructions: 1460000004 cycles: 4293239720 heartbeat IPC: 0.216614 cumulative IPC: 0.23038 (Simulation time: 7 hr 47 min 29 sec) 
Heartbeat CPU 0 instructions: 1470000004 cycles: 4339432564 heartbeat IPC: 0.216484 cumulative IPC: 0.230228 (Simulation time: 7 hr 51 min 57 sec) 
Heartbeat CPU 0 instructions: 1480000001 cycles: 4385835867 heartbeat IPC: 0.215502 cumulative IPC: 0.230067 (Simulation time: 7 hr 56 min 27 sec) 
Heartbeat CPU 0 instructions: 1490000003 cycles: 4431640373 heartbeat IPC: 0.218319 cumulative IPC: 0.229942 (Simulation time: 8 hr 0 min 52 sec) 
Heartbeat CPU 0 instructions: 1500000000 cycles: 4477835460 heartbeat IPC: 0.216473 cumulative IPC: 0.229799 (Simulation time: 8 hr 5 min 19 sec) 
Heartbeat CPU 0 instructions: 1510000004 cycles: 4525024155 heartbeat IPC: 0.211915 cumulative IPC: 0.229607 (Simulation time: 8 hr 9 min 54 sec) 
Heartbeat CPU 0 instructions: 1520000001 cycles: 4570822096 heartbeat IPC: 0.21835 cumulative IPC: 0.229491 (Simulation time: 8 hr 14 min 19 sec) 
Heartbeat CPU 0 instructions: 1530000003 cycles: 4618414093 heartbeat IPC: 0.210119 cumulative IPC: 0.229286 (Simulation time: 8 hr 18 min 56 sec) 
Heartbeat CPU 0 instructions: 1540000000 cycles: 4665732388 heartbeat IPC: 0.211335 cumulative IPC: 0.229099 (Simulation time: 8 hr 23 min 32 sec) 
Heartbeat CPU 0 instructions: 1550000000 cycles: 4713186730 heartbeat IPC: 0.210729 cumulative IPC: 0.228909 (Simulation time: 8 hr 28 min 8 sec) 
Heartbeat CPU 0 instructions: 1560000000 cycles: 4760030443 heartbeat IPC: 0.213476 cumulative IPC: 0.228753 (Simulation time: 8 hr 32 min 40 sec) 
Heartbeat CPU 0 instructions: 1570000000 cycles: 4806488220 heartbeat IPC: 0.215249 cumulative IPC: 0.228619 (Simulation time: 8 hr 37 min 9 sec) 
Heartbeat CPU 0 instructions: 1580000000 cycles: 4854704033 heartbeat IPC: 0.207401 cumulative IPC: 0.228403 (Simulation time: 8 hr 41 min 51 sec) 
Heartbeat CPU 0 instructions: 1590000000 cycles: 4901901661 heartbeat IPC: 0.211875 cumulative IPC: 0.228239 (Simulation time: 8 hr 46 min 25 sec) 
Heartbeat CPU 0 instructions: 1600000001 cycles: 4949780389 heartbeat IPC: 0.208861 cumulative IPC: 0.228047 (Simulation time: 8 hr 51 min 4 sec) 
Heartbeat CPU 0 instructions: 1610000004 cycles: 4998537015 heartbeat IPC: 0.2051 cumulative IPC: 0.227817 (Simulation time: 8 hr 55 min 49 sec) 
Heartbeat CPU 0 instructions: 1620000002 cycles: 5046665373 heartbeat IPC: 0.207778 cumulative IPC: 0.227621 (Simulation time: 9 hr 0 min 29 sec) 
Heartbeat CPU 0 instructions: 1630000000 cycles: 5096180464 heartbeat IPC: 0.201959 cumulative IPC: 0.227366 (Simulation time: 9 hr 5 min 18 sec) 
Heartbeat CPU 0 instructions: 1640000001 cycles: 5144929852 heartbeat IPC: 0.205131 cumulative IPC: 0.22715 (Simulation time: 9 hr 10 min 3 sec) 
Heartbeat CPU 0 instructions: 1650000002 cycles: 5194377248 heartbeat IPC: 0.202235 cumulative IPC: 0.226907 (Simulation time: 9 hr 14 min 52 sec) 
Heartbeat CPU 0 instructions: 1660000002 cycles: 5243252125 heartbeat IPC: 0.204604 cumulative IPC: 0.226694 (Simulation time: 9 hr 19 min 38 sec) 
Heartbeat CPU 0 instructions: 1670000002 cycles: 5291015944 heartbeat IPC: 0.209363 cumulative IPC: 0.226533 (Simulation time: 9 hr 24 min 15 sec) 
Heartbeat CPU 0 instructions: 1680000004 cycles: 5340455700 heartbeat IPC: 0.202266 cumulative IPC: 0.226303 (Simulation time: 9 hr 29 min 4 sec) 
Heartbeat CPU 0 instructions: 1690000000 cycles: 5389001604 heartbeat IPC: 0.205991 cumulative IPC: 0.226116 (Simulation time: 9 hr 33 min 47 sec) 
Heartbeat CPU 0 instructions: 1700000001 cycles: 5437049809 heartbeat IPC: 0.208124 cumulative IPC: 0.225953 (Simulation time: 9 hr 38 min 27 sec) 
Heartbeat CPU 0 instructions: 1710000002 cycles: 5483134922 heartbeat IPC: 0.21699 cumulative IPC: 0.225876 (Simulation time: 9 hr 42 min 54 sec) 
Heartbeat CPU 0 instructions: 1720000000 cycles: 5530541258 heartbeat IPC: 0.210942 cumulative IPC: 0.225745 (Simulation time: 9 hr 47 min 31 sec) 
Heartbeat CPU 0 instructions: 1730000001 cycles: 5576496137 heartbeat IPC: 0.217605 cumulative IPC: 0.225676 (Simulation time: 9 hr 51 min 57 sec) 
Heartbeat CPU 0 instructions: 1740000001 cycles: 5622386657 heartbeat IPC: 0.21791 cumulative IPC: 0.225611 (Simulation time: 9 hr 56 min 23 sec) 
Heartbeat CPU 0 instructions: 1750000003 cycles: 5668178329 heartbeat IPC: 0.21838 cumulative IPC: 0.225552 (Simulation time: 10 hr 0 min 49 sec) 
Heartbeat CPU 0 instructions: 1760000001 cycles: 5713885190 heartbeat IPC: 0.218785 cumulative IPC: 0.225496 (Simulation time: 10 hr 5 min 14 sec) 
Heartbeat CPU 0 instructions: 1770000003 cycles: 5760935505 heartbeat IPC: 0.212538 cumulative IPC: 0.225388 (Simulation time: 10 hr 9 min 47 sec) 
Heartbeat CPU 0 instructions: 1780000002 cycles: 5807426150 heartbeat IPC: 0.215097 cumulative IPC: 0.225304 (Simulation time: 10 hr 14 min 18 sec) 
Heartbeat CPU 0 instructions: 1790000003 cycles: 5855356253 heartbeat IPC: 0.208637 cumulative IPC: 0.225164 (Simulation time: 10 hr 18 min 57 sec) 
Heartbeat CPU 0 instructions: 1800000002 cycles: 5903504363 heartbeat IPC: 0.207692 cumulative IPC: 0.225019 (Simulation time: 10 hr 23 min 38 sec) 
Heartbeat CPU 0 instructions: 1810000000 cycles: 5950690341 heartbeat IPC: 0.211927 cumulative IPC: 0.224913 (Simulation time: 10 hr 28 min 13 sec) 
Heartbeat CPU 0 instructions: 1820000004 cycles: 5999231091 heartbeat IPC: 0.206013 cumulative IPC: 0.224757 (Simulation time: 10 hr 32 min 56 sec) 
Heartbeat CPU 0 instructions: 1830000000 cycles: 6047343584 heartbeat IPC: 0.207846 cumulative IPC: 0.224619 (Simulation time: 10 hr 37 min 38 sec) 
Heartbeat CPU 0 instructions: 1840000003 cycles: 6096503111 heartbeat IPC: 0.203419 cumulative IPC: 0.224445 (Simulation time: 10 hr 42 min 27 sec) 
Heartbeat CPU 0 instructions: 1850000001 cycles: 6144666437 heartbeat IPC: 0.207627 cumulative IPC: 0.22431 (Simulation time: 10 hr 47 min 9 sec) 
Heartbeat CPU 0 instructions: 1860000003 cycles: 6193471720 heartbeat IPC: 0.204896 cumulative IPC: 0.224154 (Simulation time: 10 hr 51 min 54 sec) 
Heartbeat CPU 0 instructions: 1870000004 cycles: 6241574105 heartbeat IPC: 0.20789 cumulative IPC: 0.224026 (Simulation time: 10 hr 56 min 34 sec) 
Heartbeat CPU 0 instructions: 1880000000 cycles: 6290056708 heartbeat IPC: 0.206259 cumulative IPC: 0.223886 (Simulation time: 11 hr 1 min 17 sec) 
Heartbeat CPU 0 instructions: 1890000003 cycles: 6338481841 heartbeat IPC: 0.206504 cumulative IPC: 0.223751 (Simulation time: 11 hr 6 min 0 sec) 
Heartbeat CPU 0 instructions: 1900000004 cycles: 6385365913 heartbeat IPC: 0.213292 cumulative IPC: 0.223672 (Simulation time: 11 hr 10 min 32 sec) 
Heartbeat CPU 0 instructions: 1910000002 cycles: 6431305965 heartbeat IPC: 0.217675 cumulative IPC: 0.223629 (Simulation time: 11 hr 14 min 59 sec) 
Heartbeat CPU 0 instructions: 1920000004 cycles: 6477074432 heartbeat IPC: 0.218491 cumulative IPC: 0.223592 (Simulation time: 11 hr 19 min 25 sec) 
Heartbeat CPU 0 instructions: 1930000001 cycles: 6522603551 heartbeat IPC: 0.21964 cumulative IPC: 0.223564 (Simulation time: 11 hr 23 min 49 sec) 
Heartbeat CPU 0 instructions: 1940000002 cycles: 6569379894 heartbeat IPC: 0.213783 cumulative IPC: 0.223493 (Simulation time: 11 hr 28 min 21 sec) 
Heartbeat CPU 0 instructions: 1950000004 cycles: 6614458105 heartbeat IPC: 0.221837 cumulative IPC: 0.223481 (Simulation time: 11 hr 32 min 41 sec) 
Heartbeat CPU 0 instructions: 1960000001 cycles: 6659778717 heartbeat IPC: 0.22065 cumulative IPC: 0.223461 (Simulation time: 11 hr 37 min 3 sec) 
Heartbeat CPU 0 instructions: 1970000000 cycles: 6706177676 heartbeat IPC: 0.215522 cumulative IPC: 0.223405 (Simulation time: 11 hr 41 min 33 sec) 
Heartbeat CPU 0 instructions: 1980000000 cycles: 6753111864 heartbeat IPC: 0.213064 cumulative IPC: 0.223332 (Simulation time: 11 hr 46 min 5 sec) 
Heartbeat CPU 0 instructions: 1990000000 cycles: 6799641420 heartbeat IPC: 0.214917 cumulative IPC: 0.223273 (Simulation time: 11 hr 50 min 35 sec) 
*** Reached end of trace: traces/619.lbm_s-2676B.champsimtrace.xz
Heartbeat CPU 0 instructions: 2000000000 cycles: 6847036981 heartbeat IPC: 0.21099 cumulative IPC: 0.223187 (Simulation time: 11 hr 55 min 13 sec) 
Finished CPU 0 instructions: 1500000004 cycles: 6720825552 cumulative IPC: 0.223187 (Simulation time: 11 hr 55 min 13 sec) 

ChampSim completed all CPUs

Region of Interest Statistics

CPU 0 cumulative IPC: 0.223187 instructions: 1500000004 cycles: 6720825552
cpu0_DTLB TOTAL     ACCESS:  261005458  HIT:  259076720  MISS:    1928738
cpu0_DTLB LOAD      ACCESS:  117880835  HIT:  117619011  MISS:     261824
cpu0_DTLB RFO       ACCESS:  143124623  HIT:  141457709  MISS:    1666914
cpu0_DTLB PREFETCH  ACCESS:          0  HIT:          0  MISS:          0
cpu0_DTLB WRITEBACK ACCESS:          0  HIT:          0  MISS:          0
cpu0_DTLB TRANSLATION ACCESS:          0  HIT:          0  MISS:          0
cpu0_DTLB PREFETCH  REQUESTED:          0  ISSUED:          0  USEFUL:          0  USELESS:          0
cpu0_DTLB AVERAGE MISS LATENCY: 495.245 cycles
cpu0_ITLB TOTAL     ACCESS:   25891473  HIT:   25891472  MISS:          1
cpu0_ITLB LOAD      ACCESS:   25891473  HIT:   25891472  MISS:          1
cpu0_ITLB RFO       ACCESS:          0  HIT:          0  MISS:          0
cpu0_ITLB PREFETCH  ACCESS:          0  HIT:          0  MISS:          0
cpu0_ITLB WRITEBACK ACCESS:          0  HIT:          0  MISS:          0
cpu0_ITLB TRANSLATION ACCESS:          0  HIT:          0  MISS:          0
cpu0_ITLB PREFETCH  REQUESTED:          0  ISSUED:          0  USEFUL:          0  USELESS:          0
cpu0_ITLB AVERAGE MISS LATENCY: 1579 cycles
cpu0_L1I TOTAL     ACCESS:   32946475  HIT:   32946472  MISS:          3
cpu0_L1I LOAD      ACCESS:   32946475  HIT:   32946472  MISS:          3
cpu0_L1I RFO       ACCESS:          0  HIT:          0  MISS:          0
cpu0_L1I PREFETCH  ACCESS:          0  HIT:          0  MISS:          0
cpu0_L1I WRITEBACK ACCESS:          0  HIT:          0  MISS:          0
cpu0_L1I TRANSLATION ACCESS:          0  HIT:          0  MISS:          0
cpu0_L1I PREFETCH  REQUESTED:          0  ISSUED:          0  USEFUL:          0  USELESS:          0
cpu0_L1I AVERAGE MISS LATENCY: 293.333 cycles
cpu0_STLB TOTAL     ACCESS:    1928739  HIT:     881741  MISS:    1046998
cpu0_STLB LOAD      ACCESS:     261825  HIT:          1  MISS:     261824
cpu0_STLB RFO       ACCESS:    1666914  HIT:     881740  MISS:     785174
cpu0_STLB PREFETCH  ACCESS:          0  HIT:          0  MISS:          0
cpu0_STLB WRITEBACK ACCESS:          0  HIT:          0  MISS:          0
cpu0_STLB TRANSLATION ACCESS:          0  HIT:          0  MISS:          0
cpu0_STLB PREFETCH  REQUESTED:          0  ISSUED:          0  USEFUL:          0  USELESS:          0
cpu0_STLB AVERAGE MISS LATENCY: 895.602 cycles
cpu0_L1D TOTAL     ACCESS:  349891306  HIT:  239363471  MISS:  110527835
cpu0_L1D LOAD      ACCESS:   83806192  HIT:   67058594  MISS:   16747598
cpu0_L1D RFO       ACCESS:  265099343  HIT:  171319575  MISS:   93779768
cpu0_L1D PREFETCH  ACCESS:          0  HIT:          0  MISS:          0
cpu0_L1D WRITEBACK ACCESS:          0  HIT:          0  MISS:          0
cpu0_L1D TRANSLATION ACCESS:     985771  HIT:     985302  MISS:        469
cpu0_L1D PREFETCH  REQUESTED:          0  ISSUED:          0  USEFUL:          0  USELESS:          0
cpu0_L1D AVERAGE MISS LATENCY: 741.445 cycles
cpu0_L2C TOTAL     ACCESS:  204307606  HIT:  135762825  MISS:   68544781
cpu0_L2C LOAD      ACCESS:   16747599  HIT:        426  MISS:   16747173
cpu0_L2C RFO       ACCESS:   93779742  HIT:   41985256  MISS:   51794486
cpu0_L2C PREFETCH  ACCESS:          0  HIT:          0  MISS:          0
cpu0_L2C WRITEBACK ACCESS:   93779796  HIT:   93777143  MISS:       2653
cpu0_L2C TRANSLATION ACCESS:        469  HIT:          0  MISS:        469
cpu0_L2C PREFETCH  REQUESTED:          0  ISSUED:          0  USEFUL:          0  USELESS:          0
cpu0_L2C AVERAGE MISS LATENCY: 1177.75 cycles
LLC TOTAL     ACCESS:  120336879  HIT:   53348560  MISS:   66988319
LLC LOAD      ACCESS:   16747173  HIT:        264  MISS:   16746909
LLC RFO       ACCESS:   51792386  HIT:    1553584  MISS:   50238802
LLC PREFETCH  ACCESS:          0  HIT:          0  MISS:          0
LLC WRITEBACK ACCESS:   51796851  HIT:   51794712  MISS:       2139
LLC TRANSLATION ACCESS:        469  HIT:          0  MISS:        469
LLC PREFETCH  REQUESTED:          0  ISSUED:          0  USEFUL:          0  USELESS:          0
LLC AVERAGE MISS LATENCY: 1183.62 cycles
~~~~~~~~~~Reuse Distance Profiler output~~~~~~~~~~
0	117373408	11867376
1	27807952	11388640
2	19705744	10764640
3	12882960	6282192
4	19450480	6655712
5	10330608	2998112
6	5250880	2546192
7	2181280	1145472
8	2105376	613456
9	1940416	352000
10	2508080	1910208
11	6224608	3040912
12	5392112	4699744
13	2926608	100720
14	875168	256672
15	934912	258784
16	445968	63968
17	415072	137104
18	2315776	673440
19	578640	272464
20	1589424	1225568
21	791392	117904
22	1189760	222800
23	1223456	60640
24	1030592	124496
25	1786320	52240
26	403920	57920
27	835744	82656
28	1422144	55216
29	1501248	44464
30	2039360	303248
31	1201456	466672
32	3146640	2630000
33	3905056	3197744
34	1808976	800448
35	1335552	402976
36	1132464	407936
37	1254320	775296
38	567056	262960
39	367808	118032
40	385696	130576
41	350176	86464
42	478496	206048
43	800288	507024
44	934752	661680
45	1590384	1346976
46	1732288	327728
47	357920	97744
48	302416	47856
49	477360	185280
50	672208	140048
51	1667744	412784
52	1226832	220992
53	1378416	738192
54	839776	236272
55	771328	255408
56	320144	155552
57	964096	693008
58	799760	213296
59	605120	70640
60	398960	62320
61	781088	46832
62	758832	42016
63	257088	62176
64	263024	79184
66	1377776	330832
68	1179584	945760
70	479568	359376
72	336240	91968
74	341744	136960
76	362016	173776
78	570192	343696
80	1008496	483008
82	1188384	581632
84	1456160	580576
86	1692272	510576
88	1585584	370096
90	1563728	242160
92	2226112	1218080
94	2447200	1204128
96	1519424	595840
98	1762112	1391520
100	908368	496352
102	890736	280736
104	422960	78000
106	357472	72640
108	232240	93488
110	237920	76208
112	193216	56736
114	171584	57072
116	204592	47296
118	178784	48432
120	126656	44160
122	105088	50032
124	119664	33280
126	115792	32976
128	168000	53184
132	123856	46976
136	100208	43680
140	80160	35312
144	86944	30864
148	61888	25216
152	75552	23296
156	90480	20048
160	130848	17264
164	88864	17280
168	78896	14384
172	192800	16112
176	1093376	17008
180	967888	12016
184	678272	8368
188	1519872	8256
192	987872	8144
196	1982048	6800
200	1782960	7008
204	88944	6032
208	23024	6288
212	16448	6432
216	25808	7280
220	36192	6928
224	29056	7328
228	23424	7472
232	25584	7872
236	25808	8080
240	29664	7216
244	28272	8256
248	25616	8128
252	20944	8816
256	63616	17728
264	56544	18512
272	62496	21728
280	66368	22512
288	58752	21616
296	64352	23376
304	72928	21936
312	61024	26400
320	70128	26208
328	65936	27328
336	56848	24944
344	73248	22112
352	56864	24576
360	64432	25584
368	58928	25616
376	44400	21488
384	62256	19344
392	50096	17632
400	48640	17712
408	49120	18080
416	33744	14256
424	36336	12176
432	40576	11184
440	32016	9984
448	32160	10416
456	22720	8352
464	18752	7008
472	23952	5248
480	18096	4704
488	16704	5104
496	12768	4608
504	7856	3344
512	14672	4640
528	10608	3968
544	7072	3344
560	5664	2224
576	6112	2160
592	5248	2256
608	4560	1696
624	4848	2016
640	4736	2080
656	5504	1760
672	4432	1456
688	3824	1520
704	4064	1280
720	3648	1376
736	2688	1072
752	3072	1136
768	2352	800
784	2256	640
800	1632	544
816	1536	496
832	1344	528
848	1136	480
864	960	336
880	1040	272
896	1008	336
912	480	144
928	624	208
944	400	144
960	272	96
976	304	80
992	224	112
1008	304	144
1024	576	256
1056	544	192
1088	400	112
1120	192	96
1152	160	16
1184	112	48
1216	48	16
1248	64	32
1280	32	16
1312	80	64
1344	48	32
1376	16	16
1408	48	16
1440	48	16
1472	0	0
1504	16	0
1536	16	16
1568	16	0
1600	0	0
1632	0	0
1664	0	0
1696	0	0
1728	0	0
1760	0	0
1792	0	0
1824	0	0
1856	0	0
1888	0	0
1920	0	0
1952	0	0
1984	0	0
2016	0	0
2048	0	0
2112	0	0
2176	0	0
2240	0	0
2304	0	0
2368	0	0
2432	0	0
2496	0	0
2560	0	0
2624	0	0
2688	0	0
2752	0	0
2816	0	0
2880	0	0
2944	0	0
3008	0	0
3072	0	0
3136	0	0
3200	0	0
3264	0	0
3328	0	0
3392	0	0
3456	0	0
3520	0	0
3584	0	0
3648	0	0
3712	0	0
3776	0	0
3840	0	0
3904	0	0
3968	16	0
4032	432	0
4096	396704	0
4224	73504	0
4352	136096	0
4480	64528	0
4608	3376	0
4736	3872	0
4864	4352	0
4992	4112	0
5120	4000	0
5248	5136	0
5376	5072	0
5504	4880	0
5632	7264	0
5760	10544	0
5888	14944	0
6016	21264	0
6144	31488	0
6272	40192	0
6400	60832	0
6528	77568	0
6656	90624	0
6784	108128	0
6912	138160	0
7040	187824	0
7168	226928	0
7296	276592	0
7424	324544	0
7552	395264	0
7680	456160	0
7808	526944	0
7936	590944	0
8064	686848	0
8192	1634272	0
8448	1982208	480
8704	2289760	0
8960	2498096	128
9216	2655616	0
9472	2679008	0
9728	2641328	0
9984	2432752	0
10240	2242112	0
10496	1949120	0
10752	1657392	0
11008	1333136	0
11264	1029552	0
11520	776384	0
11776	586688	0
12032	450032	0
12288	356272	0
12544	278192	0
12800	223888	0
13056	212880	0
13312	194448	0
13568	188096	0
13824	189968	0
14080	173552	0
14336	186224	0
14592	180016	0
14848	187840	0
15104	209808	0
15360	220064	0
15616	229392	0
15872	243520	0
16128	266576	0
16384	595120	0
16896	713200	0
17408	815408	0
17920	823264	0
18432	1118048	0
18944	2697392	0
19456	3080880	0
19968	1100240	0
20480	422288	0
20992	363760	0
21504	310784	0
22016	245680	0
22528	190352	0
23040	143280	0
23552	103616	0
24064	79008	0
24576	61152	0
25088	50160	0
25600	40688	0
26112	37872	0
26624	32208	0
27136	33280	0
27648	29776	0
28160	28704	0
28672	26992	0
29184	25712	0
29696	26096	0
30208	28384	0
30720	26960	0
31232	26304	0
31744	27520	0
32256	29680	0
32768	60272	0
33792	70784	0
34816	74224	0
35840	63104	0
36864	93520	0
37888	389264	0
38912	454272	0
39936	131696	0
40960	0	0
41984	0	0
43008	0	0
44032	0	0
45056	0	0
46080	0	0
47104	0	0
48128	0	0
49152	0	0
50176	0	0
51200	0	0
52224	0	0
53248	0	0
54272	0	0
55296	0	0
56320	0	0
57344	0	0
58368	0	0
59392	0	0
60416	0	0
61440	0	0
62464	0	0
63488	0	0
64512	0	0
65536	0	0
67584	0	0
69632	0	0
71680	0	0
73728	0	0
75776	0	0
77824	0	0
79872	0	0
81920	0	0
83968	0	0
86016	0	0
88064	0	0
90112	0	0
92160	0	0
94208	0	0
96256	0	0
98304	0	0
100352	0	0
102400	0	0
104448	0	0
106496	0	0
108544	0	0
110592	0	0
112640	0	0
114688	0	0
116736	0	0
118784	0	0
120832	0	0
122880	0	0
124928	0	0
126976	0	0
129024	0	0
131072	0	0
135168	0	0
139264	0	0
143360	0	0
147456	0	0
151552	0	0
155648	0	0
159744	0	0
163840	0	0
167936	0	0
172032	0	0
176128	0	0
180224	0	0
184320	0	0
188416	0	0
192512	0	0
196608	0	0
200704	0	0
204800	0	0
208896	0	0
212992	0	0
217088	0	0
221184	0	0
225280	0	0
229376	0	0
233472	0	0
237568	0	0
241664	0	0
245760	0	0
249856	0	0
253952	0	0
258048	0	0
262144	0	0
270336	0	0
278528	0	0
286720	0	0
294912	0	0
303104	0	0
311296	0	0
319488	0	0
327680	0	0
335872	0	0
344064	0	0
352256	0	0
360448	0	0
368640	0	0
376832	0	0
385024	0	0
393216	0	0
401408	0	0
409600	0	0
417792	0	0
425984	0	0
434176	0	0
442368	0	0
450560	0	0
458752	0	0
466944	0	0
475136	0	0
483328	0	0
491520	0	0
499712	0	0
507904	0	0
516096	0	0
524288	0	0
540672	0	0
557056	0	0
573440	0	0
589824	0	0
606208	0	0
622592	0	0
638976	0	0
655360	0	0
671744	0	0
688128	0	0
704512	0	0
720896	0	0
737280	0	0
753664	0	0
770048	0	0
786432	0	0
802816	0	0
819200	0	0
835584	3152	0
851968	1168	0
868352	3600	0
884736	2064	0
901120	1936	0
917504	2176	0
933888	2304	0
950272	1872	0
966656	2032	0
983040	2384	0
999424	2112	0
1015808	2080	0
1032192	2048	0
1048576	4256	0
1081344	4320	0
1114112	4112	0
1146880	4096	0
1179648	4272	0
1212416	4464	0
1245184	4192	0
1277952	4304	0
1310720	3936	0
1343488	4304	0
1376256	4512	0
1409024	4672	0
1441792	4464	0
1474560	4048	0
1507328	6080	0
1540096	55136	0
1572864	192704	0
1605632	281920	0
1638400	193408	0
1671168	224336	0
1703936	153632	0
1736704	90640	0
1769472	111456	0
1802240	129360	0
1835008	143648	0
1867776	553376	0
1900544	3073952	0
1933312	6681952	0
1966080	10364960	0
1998848	5870576	0
2031616	2501536	0
2064384	43536	0
2097152	159088	0
2162688	277584	0
2228224	244912	0
2293760	188288	0
2359296	192064	0
2424832	183888	0
2490368	168096	0
2555904	135392	0
2621440	146688	0
2686976	136576	0
2752512	128848	0
2818048	139424	0
2883584	141664	0
2949120	137552	0
3014656	129728	0
3080192	132192	0
3145728	133808	0
3211264	133536	0
3276800	118528	0
3342336	129424	0
3407872	137088	0
3473408	171072	0
3538944	183424	0
3604480	206448	0
3670016	246288	0
3735552	1575968	0
3801088	734768	0
3866624	1548176	0
3932160	899872	0
3997696	38368	0
4063232	0	0
4128768	0	0
4194304	0	0
4325376	0	0
4456448	0	0
4587520	0	0
4718592	0	0
4849664	0	0
4980736	0	0
5111808	0	0
5242880	0	0
5373952	0	0
5505024	0	0
5636096	0	0
5767168	0	0
5898240	0	0
6029312	0	0
6160384	0	0
6291456	0	0
6422528	0	0
6553600	0	0
6684672	0	0
6815744	0	0
6946816	0	0
7077888	0	0
7208960	0	0
7340032	0	0
7471104	0	0
7602176	0	0
7733248	0	0
7864320	0	0
7995392	0	0
8126464	0	0
8257536	0	0
8388608	0	0
8650752	0	0
8912896	0	0
9175040	0	0
9437184	0	0
9699328	0	0
9961472	0	0
10223616	0	0
10485760	0	0
10747904	0	0
11010048	0	0
11272192	0	0
11534336	0	0
11796480	0	0
12058624	0	0
12320768	0	0
12582912	0	0
12845056	0	0
13107200	0	0
13369344	0	0
13631488	0	0
13893632	0	0
14155776	0	0
14417920	0	0
14680064	0	0
14942208	0	0
15204352	0	0
15466496	0	0
15728640	0	0
15990784	0	0
16252928	0	0
16515072	0	0
16777216	0	0
17301504	0	0
17825792	0	0
18350080	0	0
18874368	0	0
19398656	0	0
19922944	0	0
20447232	0	0
20971520	0	0
21495808	0	0
22020096	0	0
22544384	0	0
23068672	0	0
23592960	0	0
24117248	0	0
24641536	0	0
25165824	0	0
25690112	0	0
26214400	0	0
26738688	0	0
27262976	0	0
27787264	0	0
28311552	0	0
28835840	0	0
29360128	0	0
29884416	0	0
30408704	0	0
30932992	0	0
31457280	0	0
31981568	0	0
32505856	0	0
33030144	0	0
33554432	0	0
34603008	0	0
35651584	0	0
36700160	0	0
37748736	0	0
38797312	0	0
39845888	0	0
40894464	0	0
41943040	0	0
42991616	0	0
44040192	0	0
45088768	0	0
46137344	0	0
47185920	0	0
48234496	0	0
49283072	0	0
50331648	0	0
51380224	0	0
52428800	0	0
53477376	0	0
54525952	0	0
55574528	0	0
56623104	0	0
57671680	0	0
58720256	0	0
59768832	0	0
60817408	0	0
61865984	0	0
62914560	0	0
63963136	0	0
65011712	0	0
66060288	0	0
67108864	0	0
69206016	0	0
71303168	0	0
73400320	0	0
75497472	0	0
77594624	0	0
79691776	0	0
81788928	0	0
83886080	0	0
85983232	0	0
88080384	0	0
90177536	0	0
92274688	0	0
94371840	0	0
96468992	0	0
98566144	0	0
100663296	0	0
102760448	0	0
104857600	0	0
106954752	0	0
109051904	0	0
111149056	0	0
113246208	0	0
115343360	0	0
117440512	0	0
119537664	0	0
121634816	0	0
123731968	0	0
125829120	0	0
127926272	0	0
130023424	0	0
132120576	0	0
134217728	0	0
138412032	0	0
142606336	0	0
146800640	0	0
150994944	0	0
155189248	0	0
159383552	0	0
163577856	0	0
167772160	0	0
171966464	0	0
176160768	0	0
180355072	0	0
184549376	0	0
188743680	0	0
192937984	0	0
197132288	0	0
201326592	0	0
205520896	0	0
209715200	0	0
213909504	0	0
218103808	0	0
222298112	0	0
226492416	0	0
230686720	0	0
234881024	0	0
239075328	0	0
243269632	0	0
247463936	0	0
251658240	0	0
255852544	0	0
260046848	0	0
264241152	0	0
268435456	0	0
276824064	0	0
285212672	0	0
293601280	0	0
301989888	0	0
310378496	0	0
318767104	0	0
327155712	0	0
335544320	0	0
343932928	0	0
352321536	0	0
360710144	0	0
369098752	0	0
377487360	0	0
385875968	0	0
394264576	0	0
402653184	0	0
411041792	0	0
419430400	0	0
427819008	0	0
436207616	0	0
444596224	0	0
452984832	0	0
461373440	0	0
469762048	0	0
478150656	0	0
486539264	0	0
494927872	0	0
503316480	0	0
511705088	0	0
520093696	0	0
528482304	0	0
536870912	0	0
553648128	0	0
570425344	0	0
587202560	0	0
603979776	0	0
620756992	0	0
637534208	0	0
654311424	0	0
671088640	0	0
687865856	0	0
704643072	0	0
721420288	0	0
738197504	0	0
754974720	0	0
771751936	0	0
788529152	0	0
805306368	0	0
822083584	0	0
838860800	0	0
855638016	0	0
872415232	0	0
889192448	0	0
905969664	0	0
922746880	0	0
939524096	0	0
956301312	0	0
973078528	0	0
989855744	0	0
1006632960	0	0
1023410176	0	0
1040187392	0	0
1056964608	0	0
1073741824	0	0
1107296256	0	0
1140850688	0	0
1174405120	0	0
1207959552	0	0
1241513984	0	0
1275068416	0	0
1308622848	0	0
1342177280	0	0
1375731712	0	0
1409286144	0	0
1442840576	0	0
1476395008	0	0
1509949440	0	0
1543503872	0	0
1577058304	0	0
1610612736	0	0
1644167168	0	0
1677721600	0	0
1711276032	0	0
1744830464	0	0
1778384896	0	0
1811939328	0	0
1845493760	0	0
1879048192	0	0
1912602624	0	0
1946157056	0	0
1979711488	0	0
2013265920	0	0
2046820352	0	0
2080374784	0	0
2113929216	0	0
2147483648	0	0
2214592512	0	0
2281701376	0	0
2348810240	0	0
2415919104	0	0
2483027968	0	0
2550136832	0	0
2617245696	0	0
2684354560	0	0
2751463424	0	0
2818572288	0	0
2885681152	0	0
2952790016	0	0
3019898880	0	0
3087007744	0	0
3154116608	0	0
3221225472	0	0
3288334336	0	0
3355443200	0	0
3422552064	0	0
3489660928	0	0
3556769792	0	0
3623878656	0	0
3690987520	0	0
3758096384	0	0
3825205248	0	0
3892314112	0	0
3959422976	0	0
4026531840	0	0
4093640704	0	0
4160749568	0	0
4227858432	0	0
~~~~~~~~~~Reuse Distance Profiler output end~~~~~~~~~~

DRAM Statistics
 CHANNEL 0
 RQ ROW_BUFFER_HIT:    1982809  ROW_BUFFER_MISS:   65003371
 DBUS AVG_CONGESTED_CYCLE:      4.003
 WQ ROW_BUFFER_HIT:     985702  ROW_BUFFER_MISS:   49254857  FULL:          0


CPU 0 Branch Prediction Accuracy: 96.3116% MPKI: 0.635092 Average ROB Occupancy at Mispredict: 257.53
Branch type MPKI
BRANCH_DIRECT_JUMP: 0
BRANCH_INDIRECT: 0
BRANCH_CONDITIONAL: 0.635089
BRANCH_DIRECT_CALL: 1.33333e-06
BRANCH_INDIRECT_CALL: 0
BRANCH_RETURN: 1.33333e-06

