
*** ChampSim Multicore Out-of-Order Simulator ***

Warmup Instructions: 500000000
Simulation Instructions: 1500000000
Number of CPUs: 1
Off-chip DRAM Size: 4 GiB Channels: 1 Width: 64-bit Data Rate: 3200 MT/s

VirtualMemory physical capacity: 8588881920 num_ppages: 2096895
VirtualMemory page size: 4096 log2_page_size: 12

CPU 0 runs traces/619.lbm_s-2677B.champsimtrace.xz
CPU 0 Bimodal branch predictor
Basic BTB sets: 1024 ways: 8 indirect buffer size: 4096 RAS size: 64
Initializing LRU.
Initializing LRU.
Initializing LRU.
Initializing LRU.
Initializing rdLRU.
Initializing LRU.
Initializing LRU.
Heartbeat CPU 0 instructions: 10000003 cycles: 2592810 heartbeat IPC: 3.85682 cumulative IPC: 3.85682 (Simulation time: 0 hr 1 min 3 sec) 
Heartbeat CPU 0 instructions: 20000001 cycles: 5181067 heartbeat IPC: 3.8636 cumulative IPC: 3.86021 (Simulation time: 0 hr 2 min 9 sec) 
Heartbeat CPU 0 instructions: 30000002 cycles: 7773138 heartbeat IPC: 3.85792 cumulative IPC: 3.85945 (Simulation time: 0 hr 3 min 1 sec) 
Heartbeat CPU 0 instructions: 40000002 cycles: 10359181 heartbeat IPC: 3.86691 cumulative IPC: 3.86131 (Simulation time: 0 hr 3 min 56 sec) 
Heartbeat CPU 0 instructions: 50000003 cycles: 12950970 heartbeat IPC: 3.85834 cumulative IPC: 3.86071 (Simulation time: 0 hr 4 min 46 sec) 
Heartbeat CPU 0 instructions: 60000000 cycles: 15540818 heartbeat IPC: 3.86123 cumulative IPC: 3.8608 (Simulation time: 0 hr 5 min 28 sec) 
Heartbeat CPU 0 instructions: 70000000 cycles: 18124805 heartbeat IPC: 3.86999 cumulative IPC: 3.86211 (Simulation time: 0 hr 6 min 9 sec) 
Heartbeat CPU 0 instructions: 80000001 cycles: 20719425 heartbeat IPC: 3.85413 cumulative IPC: 3.86111 (Simulation time: 0 hr 7 min 8 sec) 
Heartbeat CPU 0 instructions: 90000002 cycles: 23315029 heartbeat IPC: 3.85267 cumulative IPC: 3.86017 (Simulation time: 0 hr 8 min 6 sec) 
Heartbeat CPU 0 instructions: 100000003 cycles: 25909366 heartbeat IPC: 3.85455 cumulative IPC: 3.85961 (Simulation time: 0 hr 8 min 59 sec) 
Heartbeat CPU 0 instructions: 110000001 cycles: 28508819 heartbeat IPC: 3.84696 cumulative IPC: 3.85846 (Simulation time: 0 hr 9 min 47 sec) 
Heartbeat CPU 0 instructions: 120000002 cycles: 31104484 heartbeat IPC: 3.85258 cumulative IPC: 3.85796 (Simulation time: 0 hr 10 min 26 sec) 
Heartbeat CPU 0 instructions: 130000002 cycles: 33704031 heartbeat IPC: 3.84682 cumulative IPC: 3.85711 (Simulation time: 0 hr 11 min 5 sec) 
Heartbeat CPU 0 instructions: 140000002 cycles: 36302211 heartbeat IPC: 3.84885 cumulative IPC: 3.85651 (Simulation time: 0 hr 11 min 43 sec) 
Heartbeat CPU 0 instructions: 150000003 cycles: 38901256 heartbeat IPC: 3.84757 cumulative IPC: 3.85592 (Simulation time: 0 hr 12 min 22 sec) 
Heartbeat CPU 0 instructions: 160000002 cycles: 41494537 heartbeat IPC: 3.85612 cumulative IPC: 3.85593 (Simulation time: 0 hr 13 min 0 sec) 
Heartbeat CPU 0 instructions: 170000003 cycles: 44085704 heartbeat IPC: 3.85927 cumulative IPC: 3.85613 (Simulation time: 0 hr 13 min 38 sec) 
Heartbeat CPU 0 instructions: 180000001 cycles: 46673107 heartbeat IPC: 3.86488 cumulative IPC: 3.85661 (Simulation time: 0 hr 14 min 16 sec) 
Heartbeat CPU 0 instructions: 190000004 cycles: 49263611 heartbeat IPC: 3.86025 cumulative IPC: 3.8568 (Simulation time: 0 hr 14 min 55 sec) 
Heartbeat CPU 0 instructions: 200000001 cycles: 51855556 heartbeat IPC: 3.85811 cumulative IPC: 3.85687 (Simulation time: 0 hr 15 min 33 sec) 
Heartbeat CPU 0 instructions: 210000001 cycles: 54450875 heartbeat IPC: 3.85309 cumulative IPC: 3.85669 (Simulation time: 0 hr 16 min 12 sec) 
Heartbeat CPU 0 instructions: 220000001 cycles: 57054771 heartbeat IPC: 3.8404 cumulative IPC: 3.85594 (Simulation time: 0 hr 16 min 51 sec) 
Heartbeat CPU 0 instructions: 230000002 cycles: 59659965 heartbeat IPC: 3.83849 cumulative IPC: 3.85518 (Simulation time: 0 hr 17 min 30 sec) 
Heartbeat CPU 0 instructions: 240000001 cycles: 62269575 heartbeat IPC: 3.83199 cumulative IPC: 3.85421 (Simulation time: 0 hr 18 min 10 sec) 
Heartbeat CPU 0 instructions: 250000003 cycles: 64874316 heartbeat IPC: 3.83915 cumulative IPC: 3.85361 (Simulation time: 0 hr 18 min 50 sec) 
Heartbeat CPU 0 instructions: 260000002 cycles: 67476857 heartbeat IPC: 3.8424 cumulative IPC: 3.85317 (Simulation time: 0 hr 19 min 29 sec) 
Heartbeat CPU 0 instructions: 270000003 cycles: 70076066 heartbeat IPC: 3.84732 cumulative IPC: 3.85296 (Simulation time: 0 hr 20 min 8 sec) 
Heartbeat CPU 0 instructions: 280000000 cycles: 72672742 heartbeat IPC: 3.85108 cumulative IPC: 3.85289 (Simulation time: 0 hr 20 min 47 sec) 
Heartbeat CPU 0 instructions: 290000004 cycles: 75260790 heartbeat IPC: 3.86392 cumulative IPC: 3.85327 (Simulation time: 0 hr 21 min 26 sec) 
Heartbeat CPU 0 instructions: 300000001 cycles: 77849967 heartbeat IPC: 3.86223 cumulative IPC: 3.85357 (Simulation time: 0 hr 22 min 5 sec) 
Heartbeat CPU 0 instructions: 310000003 cycles: 80437039 heartbeat IPC: 3.86537 cumulative IPC: 3.85395 (Simulation time: 0 hr 22 min 45 sec) 
Heartbeat CPU 0 instructions: 320000000 cycles: 83016948 heartbeat IPC: 3.8761 cumulative IPC: 3.85463 (Simulation time: 0 hr 23 min 25 sec) 
Heartbeat CPU 0 instructions: 330000001 cycles: 85599799 heartbeat IPC: 3.87169 cumulative IPC: 3.85515 (Simulation time: 0 hr 24 min 4 sec) 
Heartbeat CPU 0 instructions: 340000002 cycles: 88185428 heartbeat IPC: 3.86753 cumulative IPC: 3.85551 (Simulation time: 0 hr 24 min 43 sec) 
Heartbeat CPU 0 instructions: 350000001 cycles: 90774362 heartbeat IPC: 3.86259 cumulative IPC: 3.85571 (Simulation time: 0 hr 25 min 24 sec) 
Heartbeat CPU 0 instructions: 360000000 cycles: 93365561 heartbeat IPC: 3.85922 cumulative IPC: 3.85581 (Simulation time: 0 hr 26 min 4 sec) 
Heartbeat CPU 0 instructions: 370000003 cycles: 95956618 heartbeat IPC: 3.85943 cumulative IPC: 3.85591 (Simulation time: 0 hr 26 min 44 sec) 
Heartbeat CPU 0 instructions: 380000001 cycles: 98547579 heartbeat IPC: 3.85957 cumulative IPC: 3.85601 (Simulation time: 0 hr 27 min 25 sec) 
Heartbeat CPU 0 instructions: 390000002 cycles: 101138603 heartbeat IPC: 3.85948 cumulative IPC: 3.85609 (Simulation time: 0 hr 28 min 5 sec) 
Heartbeat CPU 0 instructions: 400000004 cycles: 103733481 heartbeat IPC: 3.85375 cumulative IPC: 3.85604 (Simulation time: 0 hr 28 min 47 sec) 
Heartbeat CPU 0 instructions: 410000003 cycles: 106322942 heartbeat IPC: 3.86181 cumulative IPC: 3.85618 (Simulation time: 0 hr 29 min 28 sec) 
Heartbeat CPU 0 instructions: 420000000 cycles: 108905046 heartbeat IPC: 3.87281 cumulative IPC: 3.85657 (Simulation time: 0 hr 30 min 8 sec) 
Heartbeat CPU 0 instructions: 430000003 cycles: 111488264 heartbeat IPC: 3.87114 cumulative IPC: 3.85691 (Simulation time: 0 hr 30 min 49 sec) 
Heartbeat CPU 0 instructions: 440000004 cycles: 114066153 heartbeat IPC: 3.87914 cumulative IPC: 3.85741 (Simulation time: 0 hr 31 min 38 sec) 
Heartbeat CPU 0 instructions: 450000003 cycles: 116650147 heartbeat IPC: 3.86998 cumulative IPC: 3.85769 (Simulation time: 0 hr 32 min 16 sec) 
Heartbeat CPU 0 instructions: 460000001 cycles: 119233826 heartbeat IPC: 3.87045 cumulative IPC: 3.85797 (Simulation time: 0 hr 32 min 54 sec) 
Heartbeat CPU 0 instructions: 470000001 cycles: 121824388 heartbeat IPC: 3.86017 cumulative IPC: 3.85801 (Simulation time: 0 hr 33 min 32 sec) 
Heartbeat CPU 0 instructions: 480000002 cycles: 124416195 heartbeat IPC: 3.85831 cumulative IPC: 3.85802 (Simulation time: 0 hr 34 min 11 sec) 
Heartbeat CPU 0 instructions: 490000002 cycles: 127001517 heartbeat IPC: 3.86799 cumulative IPC: 3.85822 (Simulation time: 0 hr 34 min 49 sec) 
Heartbeat CPU 0 instructions: 500000000 cycles: 129585960 heartbeat IPC: 3.8693 cumulative IPC: 3.85844 (Simulation time: 0 hr 35 min 28 sec) 

Warmup complete CPU 0 instructions: 500000004 cycles: 129585961 (Simulation time: 0 hr 35 min 28 sec) 

Heartbeat CPU 0 instructions: 510000003 cycles: 176709023 heartbeat IPC: 0.21221 cumulative IPC: 0.21221 (Simulation time: 0 hr 40 min 12 sec) 
Heartbeat CPU 0 instructions: 520000001 cycles: 222500352 heartbeat IPC: 0.218382 cumulative IPC: 0.215252 (Simulation time: 0 hr 44 min 47 sec) 
Heartbeat CPU 0 instructions: 530000003 cycles: 270138177 heartbeat IPC: 0.209917 cumulative IPC: 0.213444 (Simulation time: 0 hr 49 min 33 sec) 
Heartbeat CPU 0 instructions: 540000001 cycles: 317541391 heartbeat IPC: 0.210956 cumulative IPC: 0.212816 (Simulation time: 0 hr 54 min 30 sec) 
Heartbeat CPU 0 instructions: 550000002 cycles: 365136936 heartbeat IPC: 0.210104 cumulative IPC: 0.212268 (Simulation time: 0 hr 59 min 26 sec) 
Heartbeat CPU 0 instructions: 560000000 cycles: 411983784 heartbeat IPC: 0.213461 cumulative IPC: 0.212466 (Simulation time: 1 hr 5 min 3 sec) 
Heartbeat CPU 0 instructions: 570000001 cycles: 458428006 heartbeat IPC: 0.215312 cumulative IPC: 0.212868 (Simulation time: 1 hr 13 min 26 sec) 
Heartbeat CPU 0 instructions: 580000000 cycles: 506599090 heartbeat IPC: 0.207593 cumulative IPC: 0.212194 (Simulation time: 1 hr 19 min 8 sec) 
Heartbeat CPU 0 instructions: 590000001 cycles: 553833444 heartbeat IPC: 0.21171 cumulative IPC: 0.21214 (Simulation time: 1 hr 25 min 49 sec) 
Heartbeat CPU 0 instructions: 600000003 cycles: 601748164 heartbeat IPC: 0.208704 cumulative IPC: 0.211792 (Simulation time: 1 hr 33 min 38 sec) 
Heartbeat CPU 0 instructions: 610000001 cycles: 650474284 heartbeat IPC: 0.205229 cumulative IPC: 0.211178 (Simulation time: 1 hr 41 min 17 sec) 
Heartbeat CPU 0 instructions: 620000003 cycles: 698641608 heartbeat IPC: 0.20761 cumulative IPC: 0.210876 (Simulation time: 1 hr 47 min 16 sec) 
Heartbeat CPU 0 instructions: 630000001 cycles: 748157592 heartbeat IPC: 0.201955 cumulative IPC: 0.210162 (Simulation time: 1 hr 54 min 39 sec) 
Heartbeat CPU 0 instructions: 640000002 cycles: 796993230 heartbeat IPC: 0.204769 cumulative IPC: 0.209767 (Simulation time: 2 hr 3 min 51 sec) 
Heartbeat CPU 0 instructions: 650000001 cycles: 846446297 heartbeat IPC: 0.202212 cumulative IPC: 0.209246 (Simulation time: 2 hr 12 min 13 sec) 
Heartbeat CPU 0 instructions: 660000001 cycles: 895351403 heartbeat IPC: 0.204478 cumulative IPC: 0.208941 (Simulation time: 2 hr 21 min 24 sec) 
Heartbeat CPU 0 instructions: 670000003 cycles: 943134854 heartbeat IPC: 0.209278 cumulative IPC: 0.208961 (Simulation time: 2 hr 27 min 51 sec) 
Heartbeat CPU 0 instructions: 680000003 cycles: 992574529 heartbeat IPC: 0.202267 cumulative IPC: 0.208577 (Simulation time: 2 hr 33 min 17 sec) 
Heartbeat CPU 0 instructions: 690000004 cycles: 1041184244 heartbeat IPC: 0.20572 cumulative IPC: 0.208425 (Simulation time: 2 hr 38 min 15 sec) 
Heartbeat CPU 0 instructions: 700000000 cycles: 1089296226 heartbeat IPC: 0.207848 cumulative IPC: 0.208396 (Simulation time: 2 hr 43 min 50 sec) 
Heartbeat CPU 0 instructions: 710000001 cycles: 1135388072 heartbeat IPC: 0.216958 cumulative IPC: 0.208789 (Simulation time: 2 hr 49 min 20 sec) 
Heartbeat CPU 0 instructions: 720000003 cycles: 1182874233 heartbeat IPC: 0.210588 cumulative IPC: 0.20887 (Simulation time: 2 hr 54 min 15 sec) 
Heartbeat CPU 0 instructions: 730000002 cycles: 1228965236 heartbeat IPC: 0.216962 cumulative IPC: 0.209209 (Simulation time: 2 hr 59 min 13 sec) 
Heartbeat CPU 0 instructions: 740000003 cycles: 1274720398 heartbeat IPC: 0.218555 cumulative IPC: 0.209582 (Simulation time: 3 hr 3 min 58 sec) 
Heartbeat CPU 0 instructions: 750000000 cycles: 1320568400 heartbeat IPC: 0.218112 cumulative IPC: 0.209911 (Simulation time: 3 hr 8 min 45 sec) 
Heartbeat CPU 0 instructions: 760000004 cycles: 1366267736 heartbeat IPC: 0.218822 cumulative IPC: 0.21024 (Simulation time: 3 hr 13 min 16 sec) 
Heartbeat CPU 0 instructions: 770000000 cycles: 1413404725 heartbeat IPC: 0.212148 cumulative IPC: 0.21031 (Simulation time: 3 hr 17 min 52 sec) 
Heartbeat CPU 0 instructions: 780000001 cycles: 1459880390 heartbeat IPC: 0.215166 cumulative IPC: 0.21048 (Simulation time: 3 hr 22 min 23 sec) 
Heartbeat CPU 0 instructions: 790000004 cycles: 1507959062 heartbeat IPC: 0.207992 cumulative IPC: 0.210393 (Simulation time: 3 hr 27 min 5 sec) 
Heartbeat CPU 0 instructions: 800000000 cycles: 1556031699 heartbeat IPC: 0.208018 cumulative IPC: 0.210313 (Simulation time: 3 hr 31 min 48 sec) 
Heartbeat CPU 0 instructions: 810000001 cycles: 1603217364 heartbeat IPC: 0.211929 cumulative IPC: 0.210365 (Simulation time: 3 hr 36 min 28 sec) 
Heartbeat CPU 0 instructions: 820000003 cycles: 1651800675 heartbeat IPC: 0.205832 cumulative IPC: 0.21022 (Simulation time: 3 hr 41 min 19 sec) 
Heartbeat CPU 0 instructions: 830000004 cycles: 1700027662 heartbeat IPC: 0.207353 cumulative IPC: 0.210132 (Simulation time: 3 hr 46 min 9 sec) 
Heartbeat CPU 0 instructions: 840000000 cycles: 1749293433 heartbeat IPC: 0.202981 cumulative IPC: 0.209914 (Simulation time: 3 hr 51 min 2 sec) 
Heartbeat CPU 0 instructions: 850000000 cycles: 1797549631 heartbeat IPC: 0.207227 cumulative IPC: 0.209837 (Simulation time: 3 hr 55 min 53 sec) 
Heartbeat CPU 0 instructions: 860000004 cycles: 1846394074 heartbeat IPC: 0.204732 cumulative IPC: 0.209691 (Simulation time: 4 hr 0 min 39 sec) 
Heartbeat CPU 0 instructions: 870000000 cycles: 1894451563 heartbeat IPC: 0.208084 cumulative IPC: 0.209648 (Simulation time: 4 hr 5 min 23 sec) 
Heartbeat CPU 0 instructions: 880000004 cycles: 1943024613 heartbeat IPC: 0.205876 cumulative IPC: 0.209547 (Simulation time: 4 hr 10 min 7 sec) 
Heartbeat CPU 0 instructions: 890000000 cycles: 1991347606 heartbeat IPC: 0.206941 cumulative IPC: 0.209479 (Simulation time: 4 hr 14 min 49 sec) 
Heartbeat CPU 0 instructions: 900000002 cycles: 2038150367 heartbeat IPC: 0.213663 cumulative IPC: 0.209582 (Simulation time: 4 hr 19 min 21 sec) 
Heartbeat CPU 0 instructions: 910000003 cycles: 2084126878 heartbeat IPC: 0.217502 cumulative IPC: 0.209768 (Simulation time: 4 hr 23 min 47 sec) 
Heartbeat CPU 0 instructions: 920000003 cycles: 2129938931 heartbeat IPC: 0.218283 cumulative IPC: 0.209963 (Simulation time: 4 hr 28 min 14 sec) 
Heartbeat CPU 0 instructions: 930000001 cycles: 2175567484 heartbeat IPC: 0.219161 cumulative IPC: 0.210168 (Simulation time: 4 hr 32 min 37 sec) 
Heartbeat CPU 0 instructions: 940000000 cycles: 2222347006 heartbeat IPC: 0.213769 cumulative IPC: 0.210249 (Simulation time: 4 hr 37 min 9 sec) 
Heartbeat CPU 0 instructions: 950000001 cycles: 2267427965 heartbeat IPC: 0.221823 cumulative IPC: 0.210493 (Simulation time: 4 hr 41 min 30 sec) 
Heartbeat CPU 0 instructions: 960000002 cycles: 2312850897 heartbeat IPC: 0.220153 cumulative IPC: 0.210694 (Simulation time: 4 hr 45 min 53 sec) 
Heartbeat CPU 0 instructions: 970000004 cycles: 2359219773 heartbeat IPC: 0.215662 cumulative IPC: 0.210797 (Simulation time: 4 hr 50 min 23 sec) 
Heartbeat CPU 0 instructions: 980000002 cycles: 2406122037 heartbeat IPC: 0.213209 cumulative IPC: 0.210847 (Simulation time: 4 hr 54 min 55 sec) 
Heartbeat CPU 0 instructions: 990000002 cycles: 2452743178 heartbeat IPC: 0.214495 cumulative IPC: 0.21092 (Simulation time: 4 hr 59 min 26 sec) 
Heartbeat CPU 0 instructions: 1000000002 cycles: 2500150776 heartbeat IPC: 0.210937 cumulative IPC: 0.21092 (Simulation time: 5 hr 4 min 7 sec) 
Heartbeat CPU 0 instructions: 1010000002 cycles: 2548385180 heartbeat IPC: 0.207321 cumulative IPC: 0.210848 (Simulation time: 5 hr 8 min 53 sec) 
Heartbeat CPU 0 instructions: 1020000000 cycles: 2596736818 heartbeat IPC: 0.206818 cumulative IPC: 0.210769 (Simulation time: 5 hr 13 min 40 sec) 
Heartbeat CPU 0 instructions: 1030000001 cycles: 2645300522 heartbeat IPC: 0.205915 cumulative IPC: 0.210676 (Simulation time: 5 hr 18 min 28 sec) 
Heartbeat CPU 0 instructions: 1040000001 cycles: 2692448235 heartbeat IPC: 0.212099 cumulative IPC: 0.210702 (Simulation time: 5 hr 23 min 6 sec) 
Heartbeat CPU 0 instructions: 1050000002 cycles: 2739876091 heartbeat IPC: 0.210847 cumulative IPC: 0.210705 (Simulation time: 5 hr 27 min 44 sec) 
Heartbeat CPU 0 instructions: 1060000000 cycles: 2786763316 heartbeat IPC: 0.213278 cumulative IPC: 0.21075 (Simulation time: 5 hr 32 min 20 sec) 
Heartbeat CPU 0 instructions: 1070000004 cycles: 2834137823 heartbeat IPC: 0.211084 cumulative IPC: 0.210756 (Simulation time: 5 hr 36 min 58 sec) 
Heartbeat CPU 0 instructions: 1080000004 cycles: 2880551401 heartbeat IPC: 0.215454 cumulative IPC: 0.210835 (Simulation time: 5 hr 41 min 30 sec) 
Heartbeat CPU 0 instructions: 1090000003 cycles: 2927686472 heartbeat IPC: 0.212156 cumulative IPC: 0.210857 (Simulation time: 5 hr 46 min 7 sec) 
Heartbeat CPU 0 instructions: 1100000003 cycles: 2974396784 heartbeat IPC: 0.214085 cumulative IPC: 0.21091 (Simulation time: 5 hr 50 min 42 sec) 
Heartbeat CPU 0 instructions: 1110000003 cycles: 3022719781 heartbeat IPC: 0.206941 cumulative IPC: 0.210844 (Simulation time: 5 hr 55 min 27 sec) 
Heartbeat CPU 0 instructions: 1120000003 cycles: 3069992992 heartbeat IPC: 0.211536 cumulative IPC: 0.210855 (Simulation time: 6 hr 0 min 4 sec) 
Heartbeat CPU 0 instructions: 1130000000 cycles: 3118203826 heartbeat IPC: 0.207422 cumulative IPC: 0.2108 (Simulation time: 6 hr 4 min 48 sec) 
Heartbeat CPU 0 instructions: 1140000001 cycles: 3165551699 heartbeat IPC: 0.211203 cumulative IPC: 0.210806 (Simulation time: 6 hr 9 min 27 sec) 
Heartbeat CPU 0 instructions: 1150000000 cycles: 3212241797 heartbeat IPC: 0.214178 cumulative IPC: 0.210857 (Simulation time: 6 hr 14 min 2 sec) 
Heartbeat CPU 0 instructions: 1160000001 cycles: 3259420013 heartbeat IPC: 0.211962 cumulative IPC: 0.210874 (Simulation time: 6 hr 18 min 39 sec) 
Heartbeat CPU 0 instructions: 1170000002 cycles: 3306042551 heartbeat IPC: 0.214489 cumulative IPC: 0.210927 (Simulation time: 6 hr 23 min 11 sec) 
Heartbeat CPU 0 instructions: 1180000003 cycles: 3353907845 heartbeat IPC: 0.20892 cumulative IPC: 0.210897 (Simulation time: 6 hr 27 min 51 sec) 
Heartbeat CPU 0 instructions: 1190000003 cycles: 3401714249 heartbeat IPC: 0.209177 cumulative IPC: 0.210872 (Simulation time: 6 hr 32 min 31 sec) 
Heartbeat CPU 0 instructions: 1200000003 cycles: 3449855753 heartbeat IPC: 0.207721 cumulative IPC: 0.210826 (Simulation time: 6 hr 37 min 15 sec) 
Heartbeat CPU 0 instructions: 1210000002 cycles: 3496866000 heartbeat IPC: 0.21272 cumulative IPC: 0.210853 (Simulation time: 6 hr 41 min 53 sec) 
Heartbeat CPU 0 instructions: 1220000000 cycles: 3545801087 heartbeat IPC: 0.204352 cumulative IPC: 0.21076 (Simulation time: 6 hr 46 min 43 sec) 
Heartbeat CPU 0 instructions: 1230000000 cycles: 3594119379 heartbeat IPC: 0.206961 cumulative IPC: 0.210707 (Simulation time: 6 hr 51 min 28 sec) 
Heartbeat CPU 0 instructions: 1240000001 cycles: 3641979096 heartbeat IPC: 0.208944 cumulative IPC: 0.210683 (Simulation time: 6 hr 56 min 8 sec) 
Heartbeat CPU 0 instructions: 1250000000 cycles: 3689748870 heartbeat IPC: 0.209337 cumulative IPC: 0.210665 (Simulation time: 7 hr 0 min 49 sec) 
Heartbeat CPU 0 instructions: 1260000000 cycles: 3738459928 heartbeat IPC: 0.205292 cumulative IPC: 0.210592 (Simulation time: 7 hr 5 min 38 sec) 
Heartbeat CPU 0 instructions: 1270000001 cycles: 3787643813 heartbeat IPC: 0.203319 cumulative IPC: 0.210494 (Simulation time: 7 hr 10 min 28 sec) 
Heartbeat CPU 0 instructions: 1280000002 cycles: 3836340949 heartbeat IPC: 0.205351 cumulative IPC: 0.210427 (Simulation time: 7 hr 15 min 15 sec) 
Heartbeat CPU 0 instructions: 1290000000 cycles: 3884174725 heartbeat IPC: 0.209057 cumulative IPC: 0.210409 (Simulation time: 7 hr 19 min 57 sec) 
Heartbeat CPU 0 instructions: 1300000004 cycles: 3931524272 heartbeat IPC: 0.211195 cumulative IPC: 0.210419 (Simulation time: 7 hr 24 min 34 sec) 
Heartbeat CPU 0 instructions: 1310000002 cycles: 3978673353 heartbeat IPC: 0.212093 cumulative IPC: 0.210439 (Simulation time: 7 hr 29 min 8 sec) 
Heartbeat CPU 0 instructions: 1320000001 cycles: 4025830333 heartbeat IPC: 0.212058 cumulative IPC: 0.210459 (Simulation time: 7 hr 33 min 44 sec) 
Heartbeat CPU 0 instructions: 1330000002 cycles: 4073357212 heartbeat IPC: 0.210407 cumulative IPC: 0.210458 (Simulation time: 7 hr 38 min 22 sec) 
Heartbeat CPU 0 instructions: 1340000000 cycles: 4121128536 heartbeat IPC: 0.209331 cumulative IPC: 0.210445 (Simulation time: 7 hr 43 min 1 sec) 
Heartbeat CPU 0 instructions: 1350000001 cycles: 4167890551 heartbeat IPC: 0.213849 cumulative IPC: 0.210484 (Simulation time: 7 hr 47 min 35 sec) 
Heartbeat CPU 0 instructions: 1360000000 cycles: 4215173755 heartbeat IPC: 0.211492 cumulative IPC: 0.210496 (Simulation time: 7 hr 52 min 11 sec) 
Heartbeat CPU 0 instructions: 1370000002 cycles: 4263239858 heartbeat IPC: 0.208047 cumulative IPC: 0.210468 (Simulation time: 7 hr 56 min 53 sec) 
Heartbeat CPU 0 instructions: 1380000003 cycles: 4310226700 heartbeat IPC: 0.212826 cumulative IPC: 0.210494 (Simulation time: 8 hr 1 min 30 sec) 
Heartbeat CPU 0 instructions: 1390000004 cycles: 4357306754 heartbeat IPC: 0.212404 cumulative IPC: 0.210515 (Simulation time: 8 hr 6 min 6 sec) 
Heartbeat CPU 0 instructions: 1400000000 cycles: 4403276896 heartbeat IPC: 0.217532 cumulative IPC: 0.210591 (Simulation time: 8 hr 10 min 35 sec) 
Heartbeat CPU 0 instructions: 1410000003 cycles: 4449037901 heartbeat IPC: 0.218527 cumulative IPC: 0.210675 (Simulation time: 8 hr 15 min 4 sec) 
Heartbeat CPU 0 instructions: 1420000003 cycles: 4495605079 heartbeat IPC: 0.214744 cumulative IPC: 0.210718 (Simulation time: 8 hr 19 min 36 sec) 
Heartbeat CPU 0 instructions: 1430000001 cycles: 4542668319 heartbeat IPC: 0.21248 cumulative IPC: 0.210737 (Simulation time: 8 hr 24 min 12 sec) 
Heartbeat CPU 0 instructions: 1440000004 cycles: 4589466385 heartbeat IPC: 0.213684 cumulative IPC: 0.210768 (Simulation time: 8 hr 28 min 48 sec) 
Heartbeat CPU 0 instructions: 1450000000 cycles: 4635795511 heartbeat IPC: 0.215847 cumulative IPC: 0.21082 (Simulation time: 8 hr 33 min 21 sec) 
Heartbeat CPU 0 instructions: 1460000000 cycles: 4681859760 heartbeat IPC: 0.217088 cumulative IPC: 0.210884 (Simulation time: 8 hr 37 min 53 sec) 
Heartbeat CPU 0 instructions: 1470000000 cycles: 4728451165 heartbeat IPC: 0.214632 cumulative IPC: 0.210922 (Simulation time: 8 hr 42 min 28 sec) 
Heartbeat CPU 0 instructions: 1480000000 cycles: 4775331582 heartbeat IPC: 0.213309 cumulative IPC: 0.210946 (Simulation time: 8 hr 47 min 3 sec) 
Heartbeat CPU 0 instructions: 1490000003 cycles: 4822620097 heartbeat IPC: 0.211468 cumulative IPC: 0.210951 (Simulation time: 8 hr 51 min 42 sec) 
Heartbeat CPU 0 instructions: 1500000001 cycles: 4870097988 heartbeat IPC: 0.210624 cumulative IPC: 0.210948 (Simulation time: 8 hr 56 min 21 sec) 
Heartbeat CPU 0 instructions: 1510000000 cycles: 4916407006 heartbeat IPC: 0.215941 cumulative IPC: 0.210996 (Simulation time: 9 hr 0 min 53 sec) 
Heartbeat CPU 0 instructions: 1520000004 cycles: 4961627104 heartbeat IPC: 0.221141 cumulative IPC: 0.211091 (Simulation time: 9 hr 5 min 17 sec) 
Heartbeat CPU 0 instructions: 1530000000 cycles: 5004791218 heartbeat IPC: 0.231674 cumulative IPC: 0.211273 (Simulation time: 9 hr 9 min 29 sec) 
Heartbeat CPU 0 instructions: 1540000000 cycles: 5046786622 heartbeat IPC: 0.238121 cumulative IPC: 0.211502 (Simulation time: 9 hr 13 min 31 sec) 
Heartbeat CPU 0 instructions: 1550000003 cycles: 5086150590 heartbeat IPC: 0.254039 cumulative IPC: 0.21184 (Simulation time: 9 hr 17 min 17 sec) 
Heartbeat CPU 0 instructions: 1560000004 cycles: 5123827251 heartbeat IPC: 0.265416 cumulative IPC: 0.212244 (Simulation time: 9 hr 20 min 50 sec) 
Heartbeat CPU 0 instructions: 1570000001 cycles: 5159892542 heartbeat IPC: 0.277275 cumulative IPC: 0.212711 (Simulation time: 9 hr 24 min 15 sec) 
Heartbeat CPU 0 instructions: 1580000003 cycles: 5194715965 heartbeat IPC: 0.287163 cumulative IPC: 0.213223 (Simulation time: 9 hr 27 min 30 sec) 
Heartbeat CPU 0 instructions: 1590000002 cycles: 5227459186 heartbeat IPC: 0.305407 cumulative IPC: 0.213815 (Simulation time: 9 hr 30 min 32 sec) 
Heartbeat CPU 0 instructions: 1600000003 cycles: 5259838696 heartbeat IPC: 0.308837 cumulative IPC: 0.214414 (Simulation time: 9 hr 33 min 33 sec) 
Heartbeat CPU 0 instructions: 1610000000 cycles: 5290598009 heartbeat IPC: 0.325105 cumulative IPC: 0.215074 (Simulation time: 9 hr 36 min 23 sec) 
Heartbeat CPU 0 instructions: 1620000004 cycles: 5320530118 heartbeat IPC: 0.33409 cumulative IPC: 0.21576 (Simulation time: 9 hr 39 min 7 sec) 
Heartbeat CPU 0 instructions: 1630000004 cycles: 5349261882 heartbeat IPC: 0.348047 cumulative IPC: 0.216489 (Simulation time: 9 hr 41 min 43 sec) 
Heartbeat CPU 0 instructions: 1640000002 cycles: 5377459241 heartbeat IPC: 0.354643 cumulative IPC: 0.217231 (Simulation time: 9 hr 44 min 14 sec) 
Heartbeat CPU 0 instructions: 1650000002 cycles: 5405070700 heartbeat IPC: 0.362168 cumulative IPC: 0.217989 (Simulation time: 9 hr 46 min 43 sec) 
Heartbeat CPU 0 instructions: 1660000000 cycles: 5431777822 heartbeat IPC: 0.374432 cumulative IPC: 0.218777 (Simulation time: 9 hr 49 min 5 sec) 
Heartbeat CPU 0 instructions: 1670000004 cycles: 5458078748 heartbeat IPC: 0.380215 cumulative IPC: 0.219574 (Simulation time: 9 hr 51 min 25 sec) 
Heartbeat CPU 0 instructions: 1680000002 cycles: 5483470940 heartbeat IPC: 0.393822 cumulative IPC: 0.220401 (Simulation time: 9 hr 53 min 39 sec) 
Heartbeat CPU 0 instructions: 1690000002 cycles: 5509178793 heartbeat IPC: 0.388986 cumulative IPC: 0.221206 (Simulation time: 9 hr 55 min 54 sec) 
Heartbeat CPU 0 instructions: 1700000003 cycles: 5534615326 heartbeat IPC: 0.393135 cumulative IPC: 0.222015 (Simulation time: 9 hr 58 min 9 sec) 
Heartbeat CPU 0 instructions: 1710000004 cycles: 5559639517 heartbeat IPC: 0.399613 cumulative IPC: 0.222834 (Simulation time: 10 hr 0 min 19 sec) 
Heartbeat CPU 0 instructions: 1720000001 cycles: 5584208747 heartbeat IPC: 0.407013 cumulative IPC: 0.223663 (Simulation time: 10 hr 2 min 27 sec) 
Heartbeat CPU 0 instructions: 1730000001 cycles: 5608793548 heartbeat IPC: 0.406755 cumulative IPC: 0.224485 (Simulation time: 10 hr 4 min 34 sec) 
Heartbeat CPU 0 instructions: 1740000002 cycles: 5633324918 heartbeat IPC: 0.407641 cumulative IPC: 0.225301 (Simulation time: 10 hr 6 min 42 sec) 
Heartbeat CPU 0 instructions: 1750000002 cycles: 5657582527 heartbeat IPC: 0.412242 cumulative IPC: 0.226122 (Simulation time: 10 hr 8 min 48 sec) 
Heartbeat CPU 0 instructions: 1760000004 cycles: 5681871072 heartbeat IPC: 0.411717 cumulative IPC: 0.226934 (Simulation time: 10 hr 10 min 53 sec) 
Heartbeat CPU 0 instructions: 1770000002 cycles: 5705958036 heartbeat IPC: 0.415162 cumulative IPC: 0.227747 (Simulation time: 10 hr 12 min 59 sec) 
Heartbeat CPU 0 instructions: 1780000000 cycles: 5730028821 heartbeat IPC: 0.415441 cumulative IPC: 0.228553 (Simulation time: 10 hr 15 min 5 sec) 
Heartbeat CPU 0 instructions: 1790000002 cycles: 5754361168 heartbeat IPC: 0.410976 cumulative IPC: 0.229343 (Simulation time: 10 hr 17 min 12 sec) 
Heartbeat CPU 0 instructions: 1800000002 cycles: 5778441975 heartbeat IPC: 0.415268 cumulative IPC: 0.230135 (Simulation time: 10 hr 19 min 18 sec) 
Heartbeat CPU 0 instructions: 1810000004 cycles: 5802225596 heartbeat IPC: 0.420458 cumulative IPC: 0.230933 (Simulation time: 10 hr 21 min 22 sec) 
Heartbeat CPU 0 instructions: 1820000000 cycles: 5826227933 heartbeat IPC: 0.416626 cumulative IPC: 0.231715 (Simulation time: 10 hr 23 min 28 sec) 
Heartbeat CPU 0 instructions: 1830000003 cycles: 5849856229 heartbeat IPC: 0.423221 cumulative IPC: 0.232506 (Simulation time: 10 hr 25 min 29 sec) 
Heartbeat CPU 0 instructions: 1840000004 cycles: 5873746807 heartbeat IPC: 0.418575 cumulative IPC: 0.23328 (Simulation time: 10 hr 27 min 34 sec) 
Heartbeat CPU 0 instructions: 1850000000 cycles: 5897295183 heartbeat IPC: 0.424658 cumulative IPC: 0.234062 (Simulation time: 10 hr 29 min 37 sec) 
Heartbeat CPU 0 instructions: 1860000001 cycles: 5921248824 heartbeat IPC: 0.417473 cumulative IPC: 0.23482 (Simulation time: 10 hr 31 min 41 sec) 
Heartbeat CPU 0 instructions: 1870000004 cycles: 5944836770 heartbeat IPC: 0.423945 cumulative IPC: 0.235587 (Simulation time: 10 hr 33 min 42 sec) 
Heartbeat CPU 0 instructions: 1880000000 cycles: 5968755786 heartbeat IPC: 0.418077 cumulative IPC: 0.236335 (Simulation time: 10 hr 35 min 47 sec) 
Heartbeat CPU 0 instructions: 1890000002 cycles: 5992342284 heartbeat IPC: 0.423971 cumulative IPC: 0.23709 (Simulation time: 10 hr 37 min 49 sec) 
Heartbeat CPU 0 instructions: 1900000003 cycles: 6016359818 heartbeat IPC: 0.416363 cumulative IPC: 0.237821 (Simulation time: 10 hr 39 min 53 sec) 
Heartbeat CPU 0 instructions: 1910000002 cycles: 6040240980 heartbeat IPC: 0.41874 cumulative IPC: 0.238552 (Simulation time: 10 hr 41 min 57 sec) 
Heartbeat CPU 0 instructions: 1920000004 cycles: 6063822707 heartbeat IPC: 0.424057 cumulative IPC: 0.239289 (Simulation time: 10 hr 43 min 58 sec) 
Heartbeat CPU 0 instructions: 1930000002 cycles: 6087802602 heartbeat IPC: 0.417016 cumulative IPC: 0.240005 (Simulation time: 10 hr 46 min 2 sec) 
Heartbeat CPU 0 instructions: 1940000004 cycles: 6111398553 heartbeat IPC: 0.423802 cumulative IPC: 0.24073 (Simulation time: 10 hr 48 min 3 sec) 
Heartbeat CPU 0 instructions: 1950000000 cycles: 6135277477 heartbeat IPC: 0.418779 cumulative IPC: 0.241438 (Simulation time: 10 hr 50 min 6 sec) 
Heartbeat CPU 0 instructions: 1960000002 cycles: 6158851194 heartbeat IPC: 0.424201 cumulative IPC: 0.242152 (Simulation time: 10 hr 52 min 7 sec) 
Heartbeat CPU 0 instructions: 1970000000 cycles: 6182823064 heartbeat IPC: 0.417156 cumulative IPC: 0.242845 (Simulation time: 10 hr 54 min 11 sec) 
Heartbeat CPU 0 instructions: 1980000000 cycles: 6206421884 heartbeat IPC: 0.42375 cumulative IPC: 0.243548 (Simulation time: 10 hr 56 min 12 sec) 
Heartbeat CPU 0 instructions: 1990000001 cycles: 6231831041 heartbeat IPC: 0.393559 cumulative IPC: 0.244172 (Simulation time: 10 hr 58 min 23 sec) 
*** Reached end of trace: traces/619.lbm_s-2677B.champsimtrace.xz
Heartbeat CPU 0 instructions: 2000000001 cycles: 6257978886 heartbeat IPC: 0.382441 cumulative IPC: 0.244762 (Simulation time: 11 hr 0 min 36 sec) 
Finished CPU 0 instructions: 1500000001 cycles: 6128393629 cumulative IPC: 0.244762 (Simulation time: 11 hr 0 min 36 sec) 

ChampSim completed all CPUs

Region of Interest Statistics

CPU 0 cumulative IPC: 0.244762 instructions: 1500000001 cycles: 6128393629
cpu0_DTLB TOTAL     ACCESS:  251341400  HIT:  249600075  MISS:    1741325
cpu0_DTLB LOAD      ACCESS:  116618471  HIT:  116382179  MISS:     236292
cpu0_DTLB RFO       ACCESS:  134722929  HIT:  133217896  MISS:    1505033
cpu0_DTLB PREFETCH  ACCESS:          0  HIT:          0  MISS:          0
cpu0_DTLB WRITEBACK ACCESS:          0  HIT:          0  MISS:          0
cpu0_DTLB TRANSLATION ACCESS:          0  HIT:          0  MISS:          0
cpu0_DTLB PREFETCH  REQUESTED:          0  ISSUED:          0  USEFUL:          0  USELESS:          0
cpu0_DTLB AVERAGE MISS LATENCY: 455.5 cycles
cpu0_ITLB TOTAL     ACCESS:   22353704  HIT:   22353704  MISS:          0
cpu0_ITLB LOAD      ACCESS:   22353704  HIT:   22353704  MISS:          0
cpu0_ITLB RFO       ACCESS:          0  HIT:          0  MISS:          0
cpu0_ITLB PREFETCH  ACCESS:          0  HIT:          0  MISS:          0
cpu0_ITLB WRITEBACK ACCESS:          0  HIT:          0  MISS:          0
cpu0_ITLB TRANSLATION ACCESS:          0  HIT:          0  MISS:          0
cpu0_ITLB PREFETCH  REQUESTED:          0  ISSUED:          0  USEFUL:          0  USELESS:          0
cpu0_ITLB AVERAGE MISS LATENCY: -nan cycles
cpu0_L1I TOTAL     ACCESS:   32065488  HIT:   32065488  MISS:          0
cpu0_L1I LOAD      ACCESS:   32065488  HIT:   32065488  MISS:          0
cpu0_L1I RFO       ACCESS:          0  HIT:          0  MISS:          0
cpu0_L1I PREFETCH  ACCESS:          0  HIT:          0  MISS:          0
cpu0_L1I WRITEBACK ACCESS:          0  HIT:          0  MISS:          0
cpu0_L1I TRANSLATION ACCESS:          0  HIT:          0  MISS:          0
cpu0_L1I PREFETCH  REQUESTED:          0  ISSUED:          0  USEFUL:          0  USELESS:          0
cpu0_L1I AVERAGE MISS LATENCY: -nan cycles
cpu0_STLB TOTAL     ACCESS:    1741325  HIT:     796461  MISS:     944864
cpu0_STLB LOAD      ACCESS:     236292  HIT:          1  MISS:     236291
cpu0_STLB RFO       ACCESS:    1505033  HIT:     796460  MISS:     708573
cpu0_STLB PREFETCH  ACCESS:          0  HIT:          0  MISS:          0
cpu0_STLB WRITEBACK ACCESS:          0  HIT:          0  MISS:          0
cpu0_STLB TRANSLATION ACCESS:          0  HIT:          0  MISS:          0
cpu0_STLB PREFETCH  REQUESTED:          0  ISSUED:          0  USEFUL:          0  USELESS:          0
cpu0_STLB AVERAGE MISS LATENCY: 822.733 cycles
cpu0_L1D TOTAL     ACCESS:  342917572  HIT:  243167029  MISS:   99750543
cpu0_L1D LOAD      ACCESS:   84804558  HIT:   69690197  MISS:   15114361
cpu0_L1D RFO       ACCESS:  257223590  HIT:  172587900  MISS:   84635690
cpu0_L1D PREFETCH  ACCESS:          0  HIT:          0  MISS:          0
cpu0_L1D WRITEBACK ACCESS:          0  HIT:          0  MISS:          0
cpu0_L1D TRANSLATION ACCESS:     889424  HIT:     888932  MISS:        492
cpu0_L1D PREFETCH  REQUESTED:          0  ISSUED:          0  USEFUL:          0  USELESS:          0
cpu0_L1D AVERAGE MISS LATENCY: 715.008 cycles
cpu0_L2C TOTAL     ACCESS:  184386230  HIT:  122537585  MISS:   61848645
cpu0_L2C LOAD      ACCESS:   15114361  HIT:        339  MISS:   15114022
cpu0_L2C RFO       ACCESS:   84635684  HIT:   37904013  MISS:   46731671
cpu0_L2C PREFETCH  ACCESS:          0  HIT:          0  MISS:          0
cpu0_L2C WRITEBACK ACCESS:   84635693  HIT:   84633226  MISS:       2467
cpu0_L2C TRANSLATION ACCESS:        492  HIT:          7  MISS:        485
cpu0_L2C PREFETCH  REQUESTED:          0  ISSUED:          0  USEFUL:          0  USELESS:          0
cpu0_L2C AVERAGE MISS LATENCY: 1135.35 cycles
LLC TOTAL     ACCESS:  108578449  HIT:   48123199  MISS:   60455250
LLC LOAD      ACCESS:   15114022  HIT:        140  MISS:   15113882
LLC RFO       ACCESS:   46730145  HIT:    1391345  MISS:   45338800
LLC PREFETCH  ACCESS:          0  HIT:          0  MISS:          0
LLC WRITEBACK ACCESS:   46733797  HIT:   46731674  MISS:       2123
LLC TRANSLATION ACCESS:        485  HIT:         40  MISS:        445
LLC PREFETCH  REQUESTED:          0  ISSUED:          0  USEFUL:          0  USELESS:          0
LLC AVERAGE MISS LATENCY: 1140.04 cycles
~~~~~~~~~~Reuse Distance Profiler output~~~~~~~~~~
0	80780192	9432208
1	50142032	10664512
2	26054944	9544848
3	14137568	7210448
4	15727056	6329840
5	11288384	5951872
6	3111136	2581072
7	2573024	2006784
8	1822000	736400
9	4273056	2099408
10	2791760	2201280
11	6091280	2978960
12	2360448	1287136
13	1258624	251248
14	1151008	220016
15	737696	85440
16	540928	74208
17	626096	166848
18	1178480	766000
19	1084688	532208
20	4221072	1328304
21	1090576	138736
22	3534400	1223424
23	2881568	77472
24	3378528	1349312
25	1072192	91744
26	691424	127936
27	811376	73360
28	1623184	65936
29	1717008	128624
30	1862784	168560
31	1845328	659344
32	2463456	1528576
33	5082192	3951088
34	2551136	1172256
35	2251760	635744
36	1417776	424064
37	1428032	839136
38	870736	383184
39	646464	107136
40	577248	118976
41	607152	112288
42	656544	189184
43	783440	355808
44	1015696	530224
45	1231664	290608
46	1764160	1173840
47	1104176	258208
48	603680	115968
49	1909392	139520
50	354896	86480
51	637440	343536
52	477408	297472
53	2047376	760128
54	457520	285728
55	945136	265472
56	635536	155312
57	1146192	564544
58	986560	205824
59	697904	88080
60	482592	125680
61	814688	51824
62	841984	51760
63	635536	69504
64	345584	111008
66	811776	701536
68	654368	562832
70	418688	289552
72	326336	107120
74	322480	97536
76	351392	199952
78	411648	215424
80	605872	454736
82	873808	683632
84	1324256	546784
86	1009344	364912
88	1281504	255216
90	1481504	272272
92	2492880	1376960
94	2650080	1080544
96	1711840	418592
98	2103360	1194816
100	1663504	462768
102	862528	210512
104	374384	86720
106	321792	77184
108	242880	80704
110	280064	107216
112	192080	65136
114	198832	54976
116	238000	64928
118	213264	53184
120	207760	47808
122	150256	57152
124	159408	40624
126	134592	46928
128	225152	84080
132	160544	70240
136	161456	60544
140	149776	52896
144	128944	39904
148	98896	26416
152	103008	33152
156	101040	17984
160	133360	15696
164	94976	14960
168	81488	12704
172	170752	17216
176	1239184	26576
180	919072	13328
184	849744	8880
188	1779728	10528
192	1208432	12240
196	1491680	6912
200	1089328	5568
204	61328	4912
208	30848	5344
212	16144	5104
216	24640	6256
220	34720	7168
224	39728	10720
228	45472	12368
232	39072	10944
236	35568	8656
240	39280	7712
244	37296	11280
248	28624	9968
252	21504	9456
256	71392	26128
264	86496	22704
272	77680	25600
280	80880	24144
288	71600	23376
296	75072	31264
304	95280	27152
312	82208	27792
320	86208	26656
328	72576	26512
336	76592	34192
344	90352	28240
352	81584	30208
360	74784	26592
368	76144	28240
376	64016	27488
384	77536	25040
392	68672	21680
400	62848	21280
408	64640	21312
416	50384	20112
424	50352	15744
432	56160	13648
440	46048	13680
448	49920	14112
456	36784	11456
464	30816	9184
472	31792	6784
480	24528	6576
488	25456	6784
496	26384	5376
504	15648	4368
512	23728	5888
528	19696	4496
544	15408	3376
560	7104	2032
576	8368	2336
592	6448	2752
608	4976	1952
624	6928	2256
640	5344	1792
656	6640	1776
672	6224	2144
688	5008	1904
704	5488	1376
720	5520	1744
736	4384	1184
752	4144	944
768	3040	688
784	2608	624
800	2416	608
816	1824	496
832	1824	480
848	1584	272
864	1248	352
880	1392	400
896	1168	304
912	1152	272
928	896	192
944	576	192
960	448	192
976	432	96
992	432	160
1008	320	64
1024	512	176
1056	560	224
1088	384	112
1120	432	160
1152	288	144
1184	240	80
1216	128	48
1248	80	16
1280	112	16
1312	96	32
1344	80	48
1376	32	0
1408	32	16
1440	48	48
1472	0	0
1504	16	0
1536	16	16
1568	16	16
1600	16	16
1632	16	16
1664	0	0
1696	0	0
1728	0	0
1760	0	0
1792	0	0
1824	0	0
1856	0	0
1888	0	0
1920	0	0
1952	0	0
1984	0	0
2016	0	0
2048	0	0
2112	0	0
2176	0	0
2240	0	0
2304	0	0
2368	0	0
2432	0	0
2496	0	0
2560	0	0
2624	0	0
2688	0	0
2752	0	0
2816	0	0
2880	0	0
2944	0	0
3008	0	0
3072	0	0
3136	0	0
3200	0	0
3264	0	0
3328	0	0
3392	0	0
3456	0	0
3520	0	0
3584	0	0
3648	0	0
3712	0	0
3776	0	0
3840	0	0
3904	0	0
3968	0	0
4032	224	0
4096	143344	0
4224	28000	0
4352	36736	0
4480	34944	0
4608	3552	0
4736	3696	0
4864	3968	0
4992	4032	0
5120	3136	0
5248	4528	0
5376	3232	0
5504	4000	0
5632	4320	0
5760	4512	0
5888	6336	0
6016	9744	0
6144	10480	0
6272	14240	0
6400	19968	0
6528	24240	0
6656	34256	0
6784	46864	0
6912	71152	0
7040	103168	0
7168	134224	0
7296	162832	0
7424	222896	0
7552	282816	0
7680	348000	0
7808	437184	0
7936	527584	0
8064	637408	0
8192	1546544	0
8448	2001232	320
8704	2450544	0
8960	2764304	96
9216	3060144	0
9472	3211888	0
9728	3219392	0
9984	3061584	0
10240	2764832	0
10496	2388880	0
10752	2076128	0
11008	1706976	0
11264	1441568	0
11520	1173664	0
11776	906768	0
12032	683408	0
12288	501376	0
12544	371616	0
12800	297728	0
13056	246096	0
13312	194496	0
13568	165952	0
13824	160016	0
14080	153952	0
14336	148336	0
14592	168464	0
14848	173312	0
15104	180384	0
15360	197920	0
15616	227328	0
15872	229728	0
16128	265040	0
16384	580416	0
16896	676208	0
17408	800624	0
17920	974688	0
18432	1168736	0
18944	3681232	0
19456	674768	0
19968	576048	0
20480	521456	0
20992	449056	0
21504	378848	0
22016	325600	0
22528	265296	0
23040	217072	0
23552	161792	0
24064	121696	0
24576	88832	0
25088	64832	0
25600	49376	0
26112	42672	0
26624	35520	0
27136	30528	0
27648	27984	0
28160	24704	0
28672	25488	0
29184	27952	0
29696	25168	0
30208	26752	0
30720	27568	0
31232	28816	0
31744	29040	0
32256	29792	0
32768	59664	0
33792	64192	0
34816	68304	0
35840	84256	0
36864	100064	0
37888	538352	0
38912	2992	0
39936	0	0
40960	0	0
41984	0	0
43008	0	0
44032	0	0
45056	0	0
46080	0	0
47104	0	0
48128	0	0
49152	0	0
50176	0	0
51200	0	0
52224	0	0
53248	0	0
54272	0	0
55296	0	0
56320	0	0
57344	0	0
58368	0	0
59392	0	0
60416	0	0
61440	0	0
62464	0	0
63488	0	0
64512	0	0
65536	0	0
67584	0	0
69632	0	0
71680	0	0
73728	0	0
75776	0	0
77824	0	0
79872	0	0
81920	0	0
83968	0	0
86016	0	0
88064	0	0
90112	0	0
92160	0	0
94208	0	0
96256	0	0
98304	0	0
100352	0	0
102400	0	0
104448	0	0
106496	0	0
108544	0	0
110592	0	0
112640	0	0
114688	0	0
116736	0	0
118784	0	0
120832	0	0
122880	0	0
124928	0	0
126976	0	0
129024	0	0
131072	0	0
135168	0	0
139264	0	0
143360	0	0
147456	0	0
151552	0	0
155648	0	0
159744	0	0
163840	0	0
167936	0	0
172032	0	0
176128	0	0
180224	0	0
184320	0	0
188416	0	0
192512	0	0
196608	0	0
200704	0	0
204800	0	0
208896	0	0
212992	0	0
217088	0	0
221184	0	0
225280	0	0
229376	0	0
233472	0	0
237568	0	0
241664	0	0
245760	0	0
249856	0	0
253952	0	0
258048	0	0
262144	0	0
270336	0	0
278528	0	0
286720	0	0
294912	0	0
303104	0	0
311296	0	0
319488	0	0
327680	0	0
335872	0	0
344064	0	0
352256	0	0
360448	0	0
368640	0	0
376832	0	0
385024	0	0
393216	0	0
401408	0	0
409600	0	0
417792	0	0
425984	0	0
434176	0	0
442368	0	0
450560	0	0
458752	0	0
466944	0	0
475136	0	0
483328	0	0
491520	0	0
499712	0	0
507904	0	0
516096	0	0
524288	0	0
540672	0	0
557056	0	0
573440	0	0
589824	0	0
606208	0	0
622592	0	0
638976	0	0
655360	0	0
671744	0	0
688128	0	0
704512	0	0
720896	0	0
737280	0	0
753664	0	0
770048	0	0
786432	0	0
802816	0	0
819200	0	0
835584	0	0
851968	0	0
868352	0	0
884736	0	0
901120	0	0
917504	0	0
933888	0	0
950272	0	0
966656	0	0
983040	0	0
999424	0	0
1015808	0	0
1032192	0	0
1048576	0	0
1081344	0	0
1114112	0	0
1146880	0	0
1179648	0	0
1212416	0	0
1245184	0	0
1277952	0	0
1310720	0	0
1343488	0	0
1376256	0	0
1409024	0	0
1441792	0	0
1474560	0	0
1507328	0	0
1540096	0	0
1572864	0	0
1605632	0	0
1638400	0	0
1671168	0	0
1703936	0	0
1736704	0	0
1769472	0	0
1802240	0	0
1835008	0	0
1867776	3936	0
1900544	2119248	0
1933312	6095696	0
1966080	9294512	0
1998848	5751680	0
2031616	2740576	0
2064384	4546112	0
2097152	5399856	0
2162688	347968	0
2228224	115568	0
2293760	162064	0
2359296	120016	0
2424832	107440	0
2490368	105968	0
2555904	104672	0
2621440	88608	0
2686976	110448	0
2752512	93536	0
2818048	107904	0
2883584	99664	0
2949120	97456	0
3014656	102080	0
3080192	103904	0
3145728	90624	0
3211264	102368	0
3276800	103936	0
3342336	118480	0
3407872	137184	0
3473408	159472	0
3538944	190000	0
3604480	269264	0
3670016	454080	0
3735552	1287200	0
3801088	1133232	0
3866624	0	0
3932160	0	0
3997696	0	0
4063232	0	0
4128768	0	0
4194304	0	0
4325376	0	0
4456448	0	0
4587520	0	0
4718592	0	0
4849664	0	0
4980736	0	0
5111808	0	0
5242880	0	0
5373952	0	0
5505024	0	0
5636096	0	0
5767168	0	0
5898240	0	0
6029312	0	0
6160384	0	0
6291456	0	0
6422528	0	0
6553600	0	0
6684672	0	0
6815744	0	0
6946816	0	0
7077888	0	0
7208960	0	0
7340032	0	0
7471104	0	0
7602176	0	0
7733248	0	0
7864320	0	0
7995392	0	0
8126464	0	0
8257536	0	0
8388608	0	0
8650752	0	0
8912896	0	0
9175040	0	0
9437184	0	0
9699328	0	0
9961472	0	0
10223616	0	0
10485760	0	0
10747904	0	0
11010048	0	0
11272192	0	0
11534336	0	0
11796480	0	0
12058624	0	0
12320768	0	0
12582912	0	0
12845056	0	0
13107200	0	0
13369344	0	0
13631488	0	0
13893632	0	0
14155776	0	0
14417920	0	0
14680064	0	0
14942208	0	0
15204352	0	0
15466496	0	0
15728640	0	0
15990784	0	0
16252928	0	0
16515072	0	0
16777216	0	0
17301504	0	0
17825792	0	0
18350080	0	0
18874368	0	0
19398656	0	0
19922944	0	0
20447232	0	0
20971520	0	0
21495808	0	0
22020096	0	0
22544384	0	0
23068672	0	0
23592960	0	0
24117248	0	0
24641536	0	0
25165824	0	0
25690112	0	0
26214400	0	0
26738688	0	0
27262976	0	0
27787264	0	0
28311552	0	0
28835840	0	0
29360128	0	0
29884416	0	0
30408704	0	0
30932992	0	0
31457280	0	0
31981568	0	0
32505856	0	0
33030144	0	0
33554432	0	0
34603008	0	0
35651584	0	0
36700160	0	0
37748736	0	0
38797312	0	0
39845888	0	0
40894464	0	0
41943040	0	0
42991616	0	0
44040192	0	0
45088768	0	0
46137344	0	0
47185920	0	0
48234496	0	0
49283072	0	0
50331648	0	0
51380224	0	0
52428800	0	0
53477376	0	0
54525952	0	0
55574528	0	0
56623104	0	0
57671680	0	0
58720256	0	0
59768832	0	0
60817408	0	0
61865984	0	0
62914560	0	0
63963136	0	0
65011712	0	0
66060288	0	0
67108864	0	0
69206016	0	0
71303168	0	0
73400320	0	0
75497472	0	0
77594624	0	0
79691776	0	0
81788928	0	0
83886080	0	0
85983232	0	0
88080384	0	0
90177536	0	0
92274688	0	0
94371840	0	0
96468992	0	0
98566144	0	0
100663296	0	0
102760448	0	0
104857600	0	0
106954752	0	0
109051904	0	0
111149056	0	0
113246208	0	0
115343360	0	0
117440512	0	0
119537664	0	0
121634816	0	0
123731968	0	0
125829120	0	0
127926272	0	0
130023424	0	0
132120576	0	0
134217728	0	0
138412032	0	0
142606336	0	0
146800640	0	0
150994944	0	0
155189248	0	0
159383552	0	0
163577856	0	0
167772160	0	0
171966464	0	0
176160768	0	0
180355072	0	0
184549376	0	0
188743680	0	0
192937984	0	0
197132288	0	0
201326592	0	0
205520896	0	0
209715200	0	0
213909504	0	0
218103808	0	0
222298112	0	0
226492416	0	0
230686720	0	0
234881024	0	0
239075328	0	0
243269632	0	0
247463936	0	0
251658240	0	0
255852544	0	0
260046848	0	0
264241152	0	0
268435456	0	0
276824064	0	0
285212672	0	0
293601280	0	0
301989888	0	0
310378496	0	0
318767104	0	0
327155712	0	0
335544320	0	0
343932928	0	0
352321536	0	0
360710144	0	0
369098752	0	0
377487360	0	0
385875968	0	0
394264576	0	0
402653184	0	0
411041792	0	0
419430400	0	0
427819008	0	0
436207616	0	0
444596224	0	0
452984832	0	0
461373440	0	0
469762048	0	0
478150656	0	0
486539264	0	0
494927872	0	0
503316480	0	0
511705088	0	0
520093696	0	0
528482304	0	0
536870912	0	0
553648128	0	0
570425344	0	0
587202560	0	0
603979776	0	0
620756992	0	0
637534208	0	0
654311424	0	0
671088640	0	0
687865856	0	0
704643072	0	0
721420288	0	0
738197504	0	0
754974720	0	0
771751936	0	0
788529152	0	0
805306368	0	0
822083584	0	0
838860800	0	0
855638016	0	0
872415232	0	0
889192448	0	0
905969664	0	0
922746880	0	0
939524096	0	0
956301312	0	0
973078528	0	0
989855744	0	0
1006632960	0	0
1023410176	0	0
1040187392	0	0
1056964608	0	0
1073741824	0	0
1107296256	0	0
1140850688	0	0
1174405120	0	0
1207959552	0	0
1241513984	0	0
1275068416	0	0
1308622848	0	0
1342177280	0	0
1375731712	0	0
1409286144	0	0
1442840576	0	0
1476395008	0	0
1509949440	0	0
1543503872	0	0
1577058304	0	0
1610612736	0	0
1644167168	0	0
1677721600	0	0
1711276032	0	0
1744830464	0	0
1778384896	0	0
1811939328	0	0
1845493760	0	0
1879048192	0	0
1912602624	0	0
1946157056	0	0
1979711488	0	0
2013265920	0	0
2046820352	0	0
2080374784	0	0
2113929216	0	0
2147483648	0	0
2214592512	0	0
2281701376	0	0
2348810240	0	0
2415919104	0	0
2483027968	0	0
2550136832	0	0
2617245696	0	0
2684354560	0	0
2751463424	0	0
2818572288	0	0
2885681152	0	0
2952790016	0	0
3019898880	0	0
3087007744	0	0
3154116608	0	0
3221225472	0	0
3288334336	0	0
3355443200	0	0
3422552064	0	0
3489660928	0	0
3556769792	0	0
3623878656	0	0
3690987520	0	0
3758096384	0	0
3825205248	0	0
3892314112	0	0
3959422976	0	0
4026531840	0	0
4093640704	0	0
4160749568	0	0
4227858432	0	0
~~~~~~~~~~Reuse Distance Profiler output end~~~~~~~~~~

DRAM Statistics
 CHANNEL 0
 RQ ROW_BUFFER_HIT:    1635823  ROW_BUFFER_MISS:   58817304
 DBUS AVG_CONGESTED_CYCLE:    4.00301
 WQ ROW_BUFFER_HIT:     860126  ROW_BUFFER_MISS:   44480655  FULL:          0


CPU 0 Branch Prediction Accuracy: 96.7252% MPKI: 0.523922 Average ROB Occupancy at Mispredict: 256.068
Branch type MPKI
BRANCH_DIRECT_JUMP: 2e-06
BRANCH_INDIRECT: 0
BRANCH_CONDITIONAL: 0.52392
BRANCH_DIRECT_CALL: 0
BRANCH_INDIRECT_CALL: 0
BRANCH_RETURN: 0

