
*** ChampSim Multicore Out-of-Order Simulator ***

Warmup Instructions: 500000000
Simulation Instructions: 1500000000
Number of CPUs: 1
Off-chip DRAM Size: 4 GiB Channels: 1 Width: 64-bit Data Rate: 3200 MT/s

VirtualMemory physical capacity: 8588881920 num_ppages: 2096895
VirtualMemory page size: 4096 log2_page_size: 12

CPU 0 runs traces/619.lbm_s-3766B.champsimtrace.xz
CPU 0 Bimodal branch predictor
Basic BTB sets: 1024 ways: 8 indirect buffer size: 4096 RAS size: 64
Initializing LRU.
Initializing LRU.
Initializing LRU.
Initializing LRU.
Initializing rdLRU.
Initializing LRU.
Initializing LRU.
Heartbeat CPU 0 instructions: 10000001 cycles: 2500112 heartbeat IPC: 3.99982 cumulative IPC: 3.99982 (Simulation time: 0 hr 0 min 55 sec) 
Heartbeat CPU 0 instructions: 20000002 cycles: 5005108 heartbeat IPC: 3.99202 cumulative IPC: 3.99592 (Simulation time: 0 hr 1 min 37 sec) 
Heartbeat CPU 0 instructions: 30000002 cycles: 7505108 heartbeat IPC: 4 cumulative IPC: 3.99728 (Simulation time: 0 hr 2 min 26 sec) 
Heartbeat CPU 0 instructions: 40000000 cycles: 10010082 heartbeat IPC: 3.99206 cumulative IPC: 3.99597 (Simulation time: 0 hr 3 min 18 sec) 
Heartbeat CPU 0 instructions: 50000002 cycles: 12515122 heartbeat IPC: 3.99195 cumulative IPC: 3.99517 (Simulation time: 0 hr 4 min 13 sec) 
Heartbeat CPU 0 instructions: 60000002 cycles: 15015122 heartbeat IPC: 4 cumulative IPC: 3.99597 (Simulation time: 0 hr 4 min 59 sec) 
Heartbeat CPU 0 instructions: 70000000 cycles: 17520138 heartbeat IPC: 3.99199 cumulative IPC: 3.9954 (Simulation time: 0 hr 5 min 53 sec) 
Heartbeat CPU 0 instructions: 80000000 cycles: 20020138 heartbeat IPC: 4 cumulative IPC: 3.99598 (Simulation time: 0 hr 6 min 40 sec) 
Heartbeat CPU 0 instructions: 90000002 cycles: 22525158 heartbeat IPC: 3.99198 cumulative IPC: 3.99553 (Simulation time: 0 hr 7 min 26 sec) 
Heartbeat CPU 0 instructions: 100000002 cycles: 25025158 heartbeat IPC: 4 cumulative IPC: 3.99598 (Simulation time: 0 hr 8 min 13 sec) 
Heartbeat CPU 0 instructions: 110000002 cycles: 27530180 heartbeat IPC: 3.99198 cumulative IPC: 3.99562 (Simulation time: 0 hr 8 min 56 sec) 
Heartbeat CPU 0 instructions: 120000002 cycles: 30030180 heartbeat IPC: 4 cumulative IPC: 3.99598 (Simulation time: 0 hr 9 min 38 sec) 
Heartbeat CPU 0 instructions: 130000002 cycles: 32535667 heartbeat IPC: 3.99124 cumulative IPC: 3.99562 (Simulation time: 0 hr 10 min 25 sec) 
Heartbeat CPU 0 instructions: 140000000 cycles: 35045799 heartbeat IPC: 3.98385 cumulative IPC: 3.99477 (Simulation time: 0 hr 11 min 13 sec) 
Heartbeat CPU 0 instructions: 150000003 cycles: 37569664 heartbeat IPC: 3.96218 cumulative IPC: 3.99258 (Simulation time: 0 hr 12 min 11 sec) 
Heartbeat CPU 0 instructions: 160000004 cycles: 40129024 heartbeat IPC: 3.90723 cumulative IPC: 3.98714 (Simulation time: 0 hr 13 min 1 sec) 
Heartbeat CPU 0 instructions: 170000000 cycles: 42751514 heartbeat IPC: 3.81317 cumulative IPC: 3.97647 (Simulation time: 0 hr 13 min 56 sec) 
Heartbeat CPU 0 instructions: 180000003 cycles: 45425452 heartbeat IPC: 3.7398 cumulative IPC: 3.96254 (Simulation time: 0 hr 14 min 55 sec) 
Heartbeat CPU 0 instructions: 190000002 cycles: 48130397 heartbeat IPC: 3.69693 cumulative IPC: 3.94761 (Simulation time: 0 hr 15 min 46 sec) 
Heartbeat CPU 0 instructions: 200000001 cycles: 50803442 heartbeat IPC: 3.74105 cumulative IPC: 3.93674 (Simulation time: 0 hr 16 min 35 sec) 
Heartbeat CPU 0 instructions: 210000003 cycles: 53440470 heartbeat IPC: 3.79215 cumulative IPC: 3.92961 (Simulation time: 0 hr 17 min 23 sec) 
Heartbeat CPU 0 instructions: 220000000 cycles: 56044652 heartbeat IPC: 3.83998 cumulative IPC: 3.92544 (Simulation time: 0 hr 18 min 2 sec) 
Heartbeat CPU 0 instructions: 230000000 cycles: 58634017 heartbeat IPC: 3.86195 cumulative IPC: 3.92264 (Simulation time: 0 hr 18 min 40 sec) 
Heartbeat CPU 0 instructions: 240000000 cycles: 61208597 heartbeat IPC: 3.88413 cumulative IPC: 3.92102 (Simulation time: 0 hr 19 min 19 sec) 
Heartbeat CPU 0 instructions: 250000003 cycles: 63786885 heartbeat IPC: 3.87854 cumulative IPC: 3.9193 (Simulation time: 0 hr 19 min 58 sec) 
Heartbeat CPU 0 instructions: 260000000 cycles: 66361480 heartbeat IPC: 3.8841 cumulative IPC: 3.91794 (Simulation time: 0 hr 21 min 1 sec) 
Heartbeat CPU 0 instructions: 270000002 cycles: 68928443 heartbeat IPC: 3.89565 cumulative IPC: 3.91711 (Simulation time: 0 hr 22 min 7 sec) 
Heartbeat CPU 0 instructions: 280000001 cycles: 71504528 heartbeat IPC: 3.88186 cumulative IPC: 3.91584 (Simulation time: 0 hr 23 min 14 sec) 
Heartbeat CPU 0 instructions: 290000004 cycles: 74086142 heartbeat IPC: 3.87355 cumulative IPC: 3.91436 (Simulation time: 0 hr 24 min 12 sec) 
Heartbeat CPU 0 instructions: 300000004 cycles: 76682431 heartbeat IPC: 3.85165 cumulative IPC: 3.91224 (Simulation time: 0 hr 25 min 16 sec) 
Heartbeat CPU 0 instructions: 310000001 cycles: 79286237 heartbeat IPC: 3.84053 cumulative IPC: 3.90988 (Simulation time: 0 hr 26 min 0 sec) 
Heartbeat CPU 0 instructions: 320000000 cycles: 81891957 heartbeat IPC: 3.83771 cumulative IPC: 3.90759 (Simulation time: 0 hr 27 min 10 sec) 
Heartbeat CPU 0 instructions: 330000003 cycles: 84490294 heartbeat IPC: 3.84862 cumulative IPC: 3.90577 (Simulation time: 0 hr 28 min 19 sec) 
Heartbeat CPU 0 instructions: 340000004 cycles: 87089056 heartbeat IPC: 3.84799 cumulative IPC: 3.90405 (Simulation time: 0 hr 29 min 28 sec) 
Heartbeat CPU 0 instructions: 350000002 cycles: 89685355 heartbeat IPC: 3.85164 cumulative IPC: 3.90253 (Simulation time: 0 hr 30 min 37 sec) 
Heartbeat CPU 0 instructions: 360000003 cycles: 92281995 heartbeat IPC: 3.85113 cumulative IPC: 3.90109 (Simulation time: 0 hr 31 min 46 sec) 
Heartbeat CPU 0 instructions: 370000001 cycles: 94870883 heartbeat IPC: 3.86266 cumulative IPC: 3.90004 (Simulation time: 0 hr 32 min 43 sec) 
Heartbeat CPU 0 instructions: 380000001 cycles: 97459256 heartbeat IPC: 3.86343 cumulative IPC: 3.89907 (Simulation time: 0 hr 33 min 23 sec) 
Heartbeat CPU 0 instructions: 390000001 cycles: 100044283 heartbeat IPC: 3.86843 cumulative IPC: 3.89827 (Simulation time: 0 hr 34 min 2 sec) 
Heartbeat CPU 0 instructions: 400000000 cycles: 102634941 heartbeat IPC: 3.86002 cumulative IPC: 3.89731 (Simulation time: 0 hr 34 min 56 sec) 
Heartbeat CPU 0 instructions: 410000003 cycles: 105230058 heartbeat IPC: 3.85339 cumulative IPC: 3.89623 (Simulation time: 0 hr 35 min 39 sec) 
Heartbeat CPU 0 instructions: 420000000 cycles: 107829598 heartbeat IPC: 3.84683 cumulative IPC: 3.89503 (Simulation time: 0 hr 36 min 20 sec) 
Heartbeat CPU 0 instructions: 430000001 cycles: 110426204 heartbeat IPC: 3.85118 cumulative IPC: 3.894 (Simulation time: 0 hr 37 min 2 sec) 
Heartbeat CPU 0 instructions: 440000000 cycles: 113018846 heartbeat IPC: 3.85707 cumulative IPC: 3.89316 (Simulation time: 0 hr 37 min 47 sec) 
Heartbeat CPU 0 instructions: 450000000 cycles: 115611423 heartbeat IPC: 3.85717 cumulative IPC: 3.89235 (Simulation time: 0 hr 38 min 54 sec) 
Heartbeat CPU 0 instructions: 460000000 cycles: 118198186 heartbeat IPC: 3.86584 cumulative IPC: 3.89177 (Simulation time: 0 hr 40 min 2 sec) 
Heartbeat CPU 0 instructions: 470000002 cycles: 120793020 heartbeat IPC: 3.85381 cumulative IPC: 3.89095 (Simulation time: 0 hr 40 min 58 sec) 
Heartbeat CPU 0 instructions: 480000000 cycles: 123384428 heartbeat IPC: 3.85891 cumulative IPC: 3.89028 (Simulation time: 0 hr 41 min 38 sec) 
Heartbeat CPU 0 instructions: 490000001 cycles: 125971106 heartbeat IPC: 3.86596 cumulative IPC: 3.88978 (Simulation time: 0 hr 42 min 17 sec) 
Heartbeat CPU 0 instructions: 500000002 cycles: 128562309 heartbeat IPC: 3.85921 cumulative IPC: 3.88916 (Simulation time: 0 hr 42 min 56 sec) 

Warmup complete CPU 0 instructions: 500000002 cycles: 128562309 (Simulation time: 0 hr 42 min 56 sec) 

Heartbeat CPU 0 instructions: 510000002 cycles: 176484009 heartbeat IPC: 0.208674 cumulative IPC: 0.208674 (Simulation time: 0 hr 48 min 39 sec) 
Heartbeat CPU 0 instructions: 520000004 cycles: 223588966 heartbeat IPC: 0.212292 cumulative IPC: 0.210467 (Simulation time: 0 hr 56 min 23 sec) 
Heartbeat CPU 0 instructions: 530000002 cycles: 271850585 heartbeat IPC: 0.207204 cumulative IPC: 0.209368 (Simulation time: 1 hr 2 min 49 sec) 
Heartbeat CPU 0 instructions: 540000002 cycles: 319212885 heartbeat IPC: 0.211138 cumulative IPC: 0.209808 (Simulation time: 1 hr 9 min 2 sec) 
Heartbeat CPU 0 instructions: 550000004 cycles: 366642202 heartbeat IPC: 0.21084 cumulative IPC: 0.210014 (Simulation time: 1 hr 15 min 8 sec) 
Heartbeat CPU 0 instructions: 560000000 cycles: 414500349 heartbeat IPC: 0.208951 cumulative IPC: 0.209836 (Simulation time: 1 hr 21 min 57 sec) 
Heartbeat CPU 0 instructions: 570000004 cycles: 462962442 heartbeat IPC: 0.206347 cumulative IPC: 0.20933 (Simulation time: 1 hr 29 min 22 sec) 
Heartbeat CPU 0 instructions: 580000001 cycles: 511254771 heartbeat IPC: 0.207072 cumulative IPC: 0.209045 (Simulation time: 1 hr 35 min 27 sec) 
Heartbeat CPU 0 instructions: 590000003 cycles: 558517199 heartbeat IPC: 0.211585 cumulative IPC: 0.209324 (Simulation time: 1 hr 41 min 13 sec) 
Heartbeat CPU 0 instructions: 600000000 cycles: 604900465 heartbeat IPC: 0.215595 cumulative IPC: 0.209935 (Simulation time: 1 hr 47 min 36 sec) 
Heartbeat CPU 0 instructions: 610000004 cycles: 652543787 heartbeat IPC: 0.209893 cumulative IPC: 0.209931 (Simulation time: 1 hr 53 min 50 sec) 
Heartbeat CPU 0 instructions: 620000002 cycles: 699210095 heartbeat IPC: 0.214287 cumulative IPC: 0.210287 (Simulation time: 2 hr 1 min 52 sec) 
Heartbeat CPU 0 instructions: 630000002 cycles: 746019771 heartbeat IPC: 0.213631 cumulative IPC: 0.210541 (Simulation time: 2 hr 7 min 12 sec) 
Heartbeat CPU 0 instructions: 640000004 cycles: 793064788 heartbeat IPC: 0.212562 cumulative IPC: 0.210684 (Simulation time: 2 hr 11 min 51 sec) 
Heartbeat CPU 0 instructions: 650000000 cycles: 840445452 heartbeat IPC: 0.211056 cumulative IPC: 0.210709 (Simulation time: 2 hr 17 min 25 sec) 
Heartbeat CPU 0 instructions: 660000004 cycles: 888382704 heartbeat IPC: 0.208606 cumulative IPC: 0.210576 (Simulation time: 2 hr 23 min 59 sec) 
Heartbeat CPU 0 instructions: 670000002 cycles: 938337446 heartbeat IPC: 0.200181 cumulative IPC: 0.209935 (Simulation time: 2 hr 29 min 46 sec) 
Heartbeat CPU 0 instructions: 680000000 cycles: 988411512 heartbeat IPC: 0.199704 cumulative IPC: 0.209339 (Simulation time: 2 hr 34 min 46 sec) 
Heartbeat CPU 0 instructions: 690000004 cycles: 1038326139 heartbeat IPC: 0.200342 cumulative IPC: 0.208845 (Simulation time: 2 hr 39 min 48 sec) 
Heartbeat CPU 0 instructions: 700000003 cycles: 1086159823 heartbeat IPC: 0.209058 cumulative IPC: 0.208856 (Simulation time: 2 hr 44 min 48 sec) 
Heartbeat CPU 0 instructions: 710000002 cycles: 1134873815 heartbeat IPC: 0.20528 cumulative IPC: 0.208683 (Simulation time: 2 hr 49 min 42 sec) 
Heartbeat CPU 0 instructions: 720000002 cycles: 1182067563 heartbeat IPC: 0.211892 cumulative IPC: 0.208827 (Simulation time: 2 hr 54 min 23 sec) 
Heartbeat CPU 0 instructions: 730000001 cycles: 1229477265 heartbeat IPC: 0.210927 cumulative IPC: 0.208917 (Simulation time: 2 hr 59 min 6 sec) 
Heartbeat CPU 0 instructions: 740000000 cycles: 1276240921 heartbeat IPC: 0.213841 cumulative IPC: 0.209118 (Simulation time: 3 hr 3 min 44 sec) 
Heartbeat CPU 0 instructions: 750000001 cycles: 1321911101 heartbeat IPC: 0.218961 cumulative IPC: 0.209494 (Simulation time: 3 hr 8 min 16 sec) 
Heartbeat CPU 0 instructions: 760000001 cycles: 1367935647 heartbeat IPC: 0.217275 cumulative IPC: 0.209783 (Simulation time: 3 hr 12 min 48 sec) 
Heartbeat CPU 0 instructions: 770000000 cycles: 1414469903 heartbeat IPC: 0.214895 cumulative IPC: 0.209968 (Simulation time: 3 hr 17 min 30 sec) 
Heartbeat CPU 0 instructions: 780000004 cycles: 1460318678 heartbeat IPC: 0.218108 cumulative IPC: 0.210249 (Simulation time: 3 hr 22 min 1 sec) 
Heartbeat CPU 0 instructions: 790000000 cycles: 1507907701 heartbeat IPC: 0.210132 cumulative IPC: 0.210245 (Simulation time: 3 hr 26 min 43 sec) 
Heartbeat CPU 0 instructions: 800000000 cycles: 1555283817 heartbeat IPC: 0.211077 cumulative IPC: 0.210272 (Simulation time: 3 hr 31 min 27 sec) 
Heartbeat CPU 0 instructions: 810000001 cycles: 1602053459 heartbeat IPC: 0.213814 cumulative IPC: 0.210385 (Simulation time: 3 hr 36 min 4 sec) 
Heartbeat CPU 0 instructions: 820000003 cycles: 1650736255 heartbeat IPC: 0.205411 cumulative IPC: 0.210226 (Simulation time: 3 hr 40 min 52 sec) 
Heartbeat CPU 0 instructions: 830000000 cycles: 1698991698 heartbeat IPC: 0.20723 cumulative IPC: 0.210134 (Simulation time: 3 hr 45 min 36 sec) 
Heartbeat CPU 0 instructions: 840000000 cycles: 1746294796 heartbeat IPC: 0.211403 cumulative IPC: 0.210171 (Simulation time: 3 hr 50 min 15 sec) 
Heartbeat CPU 0 instructions: 850000001 cycles: 1793347928 heartbeat IPC: 0.212526 cumulative IPC: 0.210237 (Simulation time: 3 hr 54 min 52 sec) 
Heartbeat CPU 0 instructions: 860000001 cycles: 1839421741 heartbeat IPC: 0.217043 cumulative IPC: 0.210421 (Simulation time: 3 hr 59 min 24 sec) 
Heartbeat CPU 0 instructions: 870000002 cycles: 1884617854 heartbeat IPC: 0.221258 cumulative IPC: 0.210699 (Simulation time: 4 hr 3 min 49 sec) 
Heartbeat CPU 0 instructions: 880000000 cycles: 1930416196 heartbeat IPC: 0.218348 cumulative IPC: 0.210894 (Simulation time: 4 hr 8 min 17 sec) 
Heartbeat CPU 0 instructions: 890000000 cycles: 1976139089 heartbeat IPC: 0.218709 cumulative IPC: 0.211087 (Simulation time: 4 hr 12 min 45 sec) 
Heartbeat CPU 0 instructions: 900000003 cycles: 2022199086 heartbeat IPC: 0.217108 cumulative IPC: 0.211234 (Simulation time: 4 hr 17 min 13 sec) 
Heartbeat CPU 0 instructions: 910000001 cycles: 2068156153 heartbeat IPC: 0.217594 cumulative IPC: 0.211384 (Simulation time: 4 hr 21 min 40 sec) 
Heartbeat CPU 0 instructions: 920000003 cycles: 2113762687 heartbeat IPC: 0.219267 cumulative IPC: 0.211566 (Simulation time: 4 hr 26 min 5 sec) 
Heartbeat CPU 0 instructions: 930000002 cycles: 2160264681 heartbeat IPC: 0.215045 cumulative IPC: 0.211645 (Simulation time: 4 hr 30 min 37 sec) 
Heartbeat CPU 0 instructions: 940000001 cycles: 2205939849 heartbeat IPC: 0.218937 cumulative IPC: 0.211806 (Simulation time: 4 hr 35 min 3 sec) 
Heartbeat CPU 0 instructions: 950000002 cycles: 2252826667 heartbeat IPC: 0.21328 cumulative IPC: 0.211838 (Simulation time: 4 hr 39 min 36 sec) 
Heartbeat CPU 0 instructions: 960000000 cycles: 2299771292 heartbeat IPC: 0.213017 cumulative IPC: 0.211864 (Simulation time: 4 hr 44 min 10 sec) 
Heartbeat CPU 0 instructions: 970000003 cycles: 2347059823 heartbeat IPC: 0.211468 cumulative IPC: 0.211855 (Simulation time: 4 hr 48 min 46 sec) 
Heartbeat CPU 0 instructions: 980000003 cycles: 2394237147 heartbeat IPC: 0.211966 cumulative IPC: 0.211857 (Simulation time: 4 hr 53 min 20 sec) 
Heartbeat CPU 0 instructions: 990000001 cycles: 2440961573 heartbeat IPC: 0.214021 cumulative IPC: 0.211901 (Simulation time: 4 hr 57 min 53 sec) 
Heartbeat CPU 0 instructions: 1000000002 cycles: 2488950727 heartbeat IPC: 0.20838 cumulative IPC: 0.21183 (Simulation time: 5 hr 2 min 34 sec) 
Heartbeat CPU 0 instructions: 1010000002 cycles: 2535941403 heartbeat IPC: 0.212808 cumulative IPC: 0.211849 (Simulation time: 5 hr 7 min 7 sec) 
Heartbeat CPU 0 instructions: 1020000002 cycles: 2583128586 heartbeat IPC: 0.211922 cumulative IPC: 0.21185 (Simulation time: 5 hr 11 min 42 sec) 
Heartbeat CPU 0 instructions: 1030000003 cycles: 2630821557 heartbeat IPC: 0.209675 cumulative IPC: 0.211809 (Simulation time: 5 hr 16 min 20 sec) 
Heartbeat CPU 0 instructions: 1040000004 cycles: 2678977398 heartbeat IPC: 0.207659 cumulative IPC: 0.21173 (Simulation time: 5 hr 21 min 2 sec) 
Heartbeat CPU 0 instructions: 1050000000 cycles: 2726974293 heartbeat IPC: 0.208347 cumulative IPC: 0.211668 (Simulation time: 5 hr 25 min 42 sec) 
Heartbeat CPU 0 instructions: 1060000000 cycles: 2776445267 heartbeat IPC: 0.202139 cumulative IPC: 0.21149 (Simulation time: 5 hr 30 min 32 sec) 
Heartbeat CPU 0 instructions: 1070000002 cycles: 2825672740 heartbeat IPC: 0.203139 cumulative IPC: 0.211337 (Simulation time: 5 hr 35 min 20 sec) 
Heartbeat CPU 0 instructions: 1080000001 cycles: 2874818700 heartbeat IPC: 0.203476 cumulative IPC: 0.211197 (Simulation time: 5 hr 40 min 8 sec) 
Heartbeat CPU 0 instructions: 1090000004 cycles: 2922663146 heartbeat IPC: 0.209011 cumulative IPC: 0.211159 (Simulation time: 5 hr 44 min 47 sec) 
Heartbeat CPU 0 instructions: 1100000002 cycles: 2971716150 heartbeat IPC: 0.203861 cumulative IPC: 0.211033 (Simulation time: 5 hr 49 min 34 sec) 
Heartbeat CPU 0 instructions: 1110000001 cycles: 3020900944 heartbeat IPC: 0.203315 cumulative IPC: 0.210902 (Simulation time: 5 hr 54 min 22 sec) 
Heartbeat CPU 0 instructions: 1120000000 cycles: 3069683531 heartbeat IPC: 0.204991 cumulative IPC: 0.210804 (Simulation time: 5 hr 59 min 7 sec) 
Heartbeat CPU 0 instructions: 1130000001 cycles: 3117657765 heartbeat IPC: 0.208445 cumulative IPC: 0.210766 (Simulation time: 6 hr 3 min 47 sec) 
Heartbeat CPU 0 instructions: 1140000002 cycles: 3165491002 heartbeat IPC: 0.20906 cumulative IPC: 0.210739 (Simulation time: 6 hr 8 min 26 sec) 
Heartbeat CPU 0 instructions: 1150000001 cycles: 3212496225 heartbeat IPC: 0.212742 cumulative IPC: 0.21077 (Simulation time: 6 hr 13 min 0 sec) 
Heartbeat CPU 0 instructions: 1160000001 cycles: 3258453932 heartbeat IPC: 0.217591 cumulative IPC: 0.21087 (Simulation time: 6 hr 17 min 27 sec) 
Heartbeat CPU 0 instructions: 1170000004 cycles: 3304620371 heartbeat IPC: 0.216608 cumulative IPC: 0.210953 (Simulation time: 6 hr 21 min 56 sec) 
Heartbeat CPU 0 instructions: 1180000000 cycles: 3350687394 heartbeat IPC: 0.217075 cumulative IPC: 0.211041 (Simulation time: 6 hr 26 min 23 sec) 
Heartbeat CPU 0 instructions: 1190000001 cycles: 3396389911 heartbeat IPC: 0.218806 cumulative IPC: 0.211149 (Simulation time: 6 hr 30 min 49 sec) 
Heartbeat CPU 0 instructions: 1200000001 cycles: 3442166687 heartbeat IPC: 0.218451 cumulative IPC: 0.21125 (Simulation time: 6 hr 35 min 14 sec) 
Heartbeat CPU 0 instructions: 1210000003 cycles: 3489781635 heartbeat IPC: 0.210018 cumulative IPC: 0.211233 (Simulation time: 6 hr 39 min 52 sec) 
Heartbeat CPU 0 instructions: 1220000003 cycles: 3537402222 heartbeat IPC: 0.209993 cumulative IPC: 0.211216 (Simulation time: 6 hr 44 min 30 sec) 
Heartbeat CPU 0 instructions: 1230000003 cycles: 3584940538 heartbeat IPC: 0.210357 cumulative IPC: 0.211204 (Simulation time: 6 hr 49 min 8 sec) 
Heartbeat CPU 0 instructions: 1240000000 cycles: 3632978338 heartbeat IPC: 0.208169 cumulative IPC: 0.211162 (Simulation time: 6 hr 53 min 49 sec) 
Heartbeat CPU 0 instructions: 1250000002 cycles: 3679952636 heartbeat IPC: 0.212882 cumulative IPC: 0.211185 (Simulation time: 6 hr 58 min 23 sec) 
Heartbeat CPU 0 instructions: 1260000001 cycles: 3728569713 heartbeat IPC: 0.205689 cumulative IPC: 0.211111 (Simulation time: 7 hr 3 min 8 sec) 
Heartbeat CPU 0 instructions: 1270000000 cycles: 3776965344 heartbeat IPC: 0.20663 cumulative IPC: 0.211051 (Simulation time: 7 hr 7 min 50 sec) 
Heartbeat CPU 0 instructions: 1280000001 cycles: 3825443907 heartbeat IPC: 0.206277 cumulative IPC: 0.210989 (Simulation time: 7 hr 12 min 34 sec) 
Heartbeat CPU 0 instructions: 1290000001 cycles: 3874638857 heartbeat IPC: 0.203273 cumulative IPC: 0.210887 (Simulation time: 7 hr 17 min 25 sec) 
Heartbeat CPU 0 instructions: 1300000000 cycles: 3922803278 heartbeat IPC: 0.207622 cumulative IPC: 0.210846 (Simulation time: 7 hr 22 min 7 sec) 
Heartbeat CPU 0 instructions: 1310000002 cycles: 3971274901 heartbeat IPC: 0.206306 cumulative IPC: 0.210789 (Simulation time: 7 hr 26 min 50 sec) 
Heartbeat CPU 0 instructions: 1320000001 cycles: 4019577798 heartbeat IPC: 0.207027 cumulative IPC: 0.210742 (Simulation time: 7 hr 31 min 32 sec) 
Heartbeat CPU 0 instructions: 1330000001 cycles: 4067822264 heartbeat IPC: 0.207278 cumulative IPC: 0.210699 (Simulation time: 7 hr 36 min 14 sec) 
Heartbeat CPU 0 instructions: 1340000002 cycles: 4114345150 heartbeat IPC: 0.214948 cumulative IPC: 0.210749 (Simulation time: 7 hr 40 min 44 sec) 
Heartbeat CPU 0 instructions: 1350000003 cycles: 4159059529 heartbeat IPC: 0.223642 cumulative IPC: 0.210892 (Simulation time: 7 hr 45 min 3 sec) 
Heartbeat CPU 0 instructions: 1360000004 cycles: 4205188063 heartbeat IPC: 0.216786 cumulative IPC: 0.210959 (Simulation time: 7 hr 49 min 31 sec) 
Heartbeat CPU 0 instructions: 1370000004 cycles: 4250994969 heartbeat IPC: 0.218308 cumulative IPC: 0.21104 (Simulation time: 7 hr 53 min 56 sec) 
Heartbeat CPU 0 instructions: 1380000001 cycles: 4297093225 heartbeat IPC: 0.216928 cumulative IPC: 0.211106 (Simulation time: 7 hr 58 min 24 sec) 
Heartbeat CPU 0 instructions: 1390000000 cycles: 4342259274 heartbeat IPC: 0.221405 cumulative IPC: 0.211216 (Simulation time: 8 hr 2 min 45 sec) 
Heartbeat CPU 0 instructions: 1400000003 cycles: 4388285002 heartbeat IPC: 0.21727 cumulative IPC: 0.211281 (Simulation time: 8 hr 7 min 12 sec) 
Heartbeat CPU 0 instructions: 1410000004 cycles: 4434612031 heartbeat IPC: 0.215857 cumulative IPC: 0.211331 (Simulation time: 8 hr 11 min 41 sec) 
Heartbeat CPU 0 instructions: 1420000000 cycles: 4481533299 heartbeat IPC: 0.213123 cumulative IPC: 0.21135 (Simulation time: 8 hr 16 min 14 sec) 
Heartbeat CPU 0 instructions: 1430000004 cycles: 4529058081 heartbeat IPC: 0.210417 cumulative IPC: 0.21134 (Simulation time: 8 hr 20 min 52 sec) 
Heartbeat CPU 0 instructions: 1440000000 cycles: 4576227710 heartbeat IPC: 0.212001 cumulative IPC: 0.211347 (Simulation time: 8 hr 25 min 26 sec) 
Heartbeat CPU 0 instructions: 1450000000 cycles: 4624913220 heartbeat IPC: 0.2054 cumulative IPC: 0.211282 (Simulation time: 8 hr 30 min 11 sec) 
Heartbeat CPU 0 instructions: 1460000001 cycles: 4673399422 heartbeat IPC: 0.206244 cumulative IPC: 0.211229 (Simulation time: 8 hr 34 min 55 sec) 
Heartbeat CPU 0 instructions: 1470000000 cycles: 4720055354 heartbeat IPC: 0.214335 cumulative IPC: 0.21126 (Simulation time: 8 hr 39 min 27 sec) 
Heartbeat CPU 0 instructions: 1480000000 cycles: 4768565504 heartbeat IPC: 0.206142 cumulative IPC: 0.211207 (Simulation time: 8 hr 44 min 11 sec) 
Heartbeat CPU 0 instructions: 1490000002 cycles: 4816278713 heartbeat IPC: 0.209586 cumulative IPC: 0.21119 (Simulation time: 8 hr 48 min 49 sec) 
Heartbeat CPU 0 instructions: 1500000000 cycles: 4862817230 heartbeat IPC: 0.214876 cumulative IPC: 0.211226 (Simulation time: 8 hr 53 min 20 sec) 
Heartbeat CPU 0 instructions: 1510000004 cycles: 4909602129 heartbeat IPC: 0.213744 cumulative IPC: 0.211251 (Simulation time: 8 hr 57 min 52 sec) 
Heartbeat CPU 0 instructions: 1520000000 cycles: 4955374382 heartbeat IPC: 0.218473 cumulative IPC: 0.21132 (Simulation time: 9 hr 2 min 17 sec) 
Heartbeat CPU 0 instructions: 1530000003 cycles: 5002921349 heartbeat IPC: 0.210318 cumulative IPC: 0.21131 (Simulation time: 9 hr 6 min 57 sec) 
Heartbeat CPU 0 instructions: 1540000004 cycles: 5050936546 heartbeat IPC: 0.208267 cumulative IPC: 0.21128 (Simulation time: 9 hr 11 min 36 sec) 
Heartbeat CPU 0 instructions: 1550000002 cycles: 5098283309 heartbeat IPC: 0.211208 cumulative IPC: 0.211279 (Simulation time: 9 hr 16 min 12 sec) 
Heartbeat CPU 0 instructions: 1560000000 cycles: 5145856520 heartbeat IPC: 0.210202 cumulative IPC: 0.211269 (Simulation time: 9 hr 20 min 49 sec) 
Heartbeat CPU 0 instructions: 1570000003 cycles: 5193173300 heartbeat IPC: 0.211342 cumulative IPC: 0.21127 (Simulation time: 9 hr 25 min 25 sec) 
Heartbeat CPU 0 instructions: 1580000001 cycles: 5240472507 heartbeat IPC: 0.21142 cumulative IPC: 0.211271 (Simulation time: 9 hr 30 min 1 sec) 
Heartbeat CPU 0 instructions: 1590000000 cycles: 5287216160 heartbeat IPC: 0.213933 cumulative IPC: 0.211295 (Simulation time: 9 hr 34 min 33 sec) 
Heartbeat CPU 0 instructions: 1600000002 cycles: 5334537641 heartbeat IPC: 0.211321 cumulative IPC: 0.211296 (Simulation time: 9 hr 39 min 9 sec) 
Heartbeat CPU 0 instructions: 1610000004 cycles: 5382371627 heartbeat IPC: 0.209056 cumulative IPC: 0.211275 (Simulation time: 9 hr 43 min 48 sec) 
Heartbeat CPU 0 instructions: 1620000002 cycles: 5429794190 heartbeat IPC: 0.21087 cumulative IPC: 0.211272 (Simulation time: 9 hr 48 min 25 sec) 
Heartbeat CPU 0 instructions: 1630000001 cycles: 5476433693 heartbeat IPC: 0.21441 cumulative IPC: 0.211299 (Simulation time: 9 hr 52 min 56 sec) 
Heartbeat CPU 0 instructions: 1640000000 cycles: 5524990446 heartbeat IPC: 0.205945 cumulative IPC: 0.211251 (Simulation time: 9 hr 57 min 41 sec) 
Heartbeat CPU 0 instructions: 1650000000 cycles: 5573343411 heartbeat IPC: 0.206813 cumulative IPC: 0.211211 (Simulation time: 10 hr 2 min 23 sec) 
Heartbeat CPU 0 instructions: 1660000003 cycles: 5621316187 heartbeat IPC: 0.208452 cumulative IPC: 0.211187 (Simulation time: 10 hr 7 min 3 sec) 
Heartbeat CPU 0 instructions: 1670000000 cycles: 5670387805 heartbeat IPC: 0.203784 cumulative IPC: 0.211122 (Simulation time: 10 hr 11 min 51 sec) 
Heartbeat CPU 0 instructions: 1680000003 cycles: 5717670278 heartbeat IPC: 0.211495 cumulative IPC: 0.211125 (Simulation time: 10 hr 16 min 27 sec) 
Heartbeat CPU 0 instructions: 1690000000 cycles: 5765990572 heartbeat IPC: 0.206952 cumulative IPC: 0.211089 (Simulation time: 10 hr 21 min 9 sec) 
Heartbeat CPU 0 instructions: 1700000003 cycles: 5814636686 heartbeat IPC: 0.205566 cumulative IPC: 0.211042 (Simulation time: 10 hr 25 min 53 sec) 
Heartbeat CPU 0 instructions: 1710000001 cycles: 5863425060 heartbeat IPC: 0.204967 cumulative IPC: 0.21099 (Simulation time: 10 hr 30 min 38 sec) 
Heartbeat CPU 0 instructions: 1720000002 cycles: 5911636264 heartbeat IPC: 0.207421 cumulative IPC: 0.21096 (Simulation time: 10 hr 35 min 21 sec) 
Heartbeat CPU 0 instructions: 1730000000 cycles: 5959961630 heartbeat IPC: 0.206931 cumulative IPC: 0.210927 (Simulation time: 10 hr 40 min 3 sec) 
Heartbeat CPU 0 instructions: 1740000001 cycles: 6007686355 heartbeat IPC: 0.209535 cumulative IPC: 0.210916 (Simulation time: 10 hr 44 min 41 sec) 
Heartbeat CPU 0 instructions: 1750000001 cycles: 6054913915 heartbeat IPC: 0.211741 cumulative IPC: 0.210922 (Simulation time: 10 hr 49 min 16 sec) 
Heartbeat CPU 0 instructions: 1760000004 cycles: 6101791338 heartbeat IPC: 0.213322 cumulative IPC: 0.210941 (Simulation time: 10 hr 53 min 49 sec) 
Heartbeat CPU 0 instructions: 1770000001 cycles: 6149385128 heartbeat IPC: 0.210111 cumulative IPC: 0.210935 (Simulation time: 10 hr 58 min 26 sec) 
Heartbeat CPU 0 instructions: 1780000000 cycles: 6195574992 heartbeat IPC: 0.216498 cumulative IPC: 0.210977 (Simulation time: 11 hr 2 min 55 sec) 
Heartbeat CPU 0 instructions: 1790000000 cycles: 6243911993 heartbeat IPC: 0.206881 cumulative IPC: 0.210945 (Simulation time: 11 hr 7 min 38 sec) 
Heartbeat CPU 0 instructions: 1800000003 cycles: 6291506489 heartbeat IPC: 0.210108 cumulative IPC: 0.210938 (Simulation time: 11 hr 12 min 16 sec) 
Heartbeat CPU 0 instructions: 1810000003 cycles: 6338802853 heartbeat IPC: 0.211433 cumulative IPC: 0.210942 (Simulation time: 11 hr 16 min 51 sec) 
Heartbeat CPU 0 instructions: 1820000000 cycles: 6386078405 heartbeat IPC: 0.211526 cumulative IPC: 0.210946 (Simulation time: 11 hr 21 min 28 sec) 
Heartbeat CPU 0 instructions: 1830000001 cycles: 6432097406 heartbeat IPC: 0.217302 cumulative IPC: 0.210993 (Simulation time: 11 hr 25 min 56 sec) 
Heartbeat CPU 0 instructions: 1840000004 cycles: 6478748965 heartbeat IPC: 0.214355 cumulative IPC: 0.211017 (Simulation time: 11 hr 30 min 27 sec) 
Heartbeat CPU 0 instructions: 1850000001 cycles: 6525383952 heartbeat IPC: 0.214431 cumulative IPC: 0.211042 (Simulation time: 11 hr 34 min 58 sec) 
Heartbeat CPU 0 instructions: 1860000000 cycles: 6571949036 heartbeat IPC: 0.214753 cumulative IPC: 0.211069 (Simulation time: 11 hr 39 min 29 sec) 
Heartbeat CPU 0 instructions: 1870000003 cycles: 6618335176 heartbeat IPC: 0.215582 cumulative IPC: 0.211101 (Simulation time: 11 hr 43 min 59 sec) 
Heartbeat CPU 0 instructions: 1880000001 cycles: 6664475693 heartbeat IPC: 0.216729 cumulative IPC: 0.211141 (Simulation time: 11 hr 48 min 26 sec) 
Heartbeat CPU 0 instructions: 1890000001 cycles: 6710599599 heartbeat IPC: 0.216807 cumulative IPC: 0.211181 (Simulation time: 11 hr 52 min 55 sec) 
Heartbeat CPU 0 instructions: 1900000003 cycles: 6757116682 heartbeat IPC: 0.214975 cumulative IPC: 0.211207 (Simulation time: 11 hr 57 min 25 sec) 
Heartbeat CPU 0 instructions: 1910000002 cycles: 6804135810 heartbeat IPC: 0.212679 cumulative IPC: 0.211218 (Simulation time: 12 hr 1 min 59 sec) 
Heartbeat CPU 0 instructions: 1920000001 cycles: 6851828461 heartbeat IPC: 0.209676 cumulative IPC: 0.211207 (Simulation time: 12 hr 6 min 36 sec) 
Heartbeat CPU 0 instructions: 1930000002 cycles: 6899406679 heartbeat IPC: 0.21018 cumulative IPC: 0.2112 (Simulation time: 12 hr 11 min 14 sec) 
Heartbeat CPU 0 instructions: 1940000001 cycles: 6946306202 heartbeat IPC: 0.213222 cumulative IPC: 0.211214 (Simulation time: 12 hr 15 min 46 sec) 
Heartbeat CPU 0 instructions: 1950000002 cycles: 6990823774 heartbeat IPC: 0.22463 cumulative IPC: 0.211301 (Simulation time: 12 hr 20 min 4 sec) 
Heartbeat CPU 0 instructions: 1960000000 cycles: 7035437941 heartbeat IPC: 0.224144 cumulative IPC: 0.211384 (Simulation time: 12 hr 24 min 23 sec) 
Heartbeat CPU 0 instructions: 1970000002 cycles: 7078512486 heartbeat IPC: 0.232156 cumulative IPC: 0.211512 (Simulation time: 12 hr 30 min 16 sec) 
Heartbeat CPU 0 instructions: 1980000001 cycles: 7119615152 heartbeat IPC: 0.243293 cumulative IPC: 0.211699 (Simulation time: 12 hr 36 min 26 sec) 
Heartbeat CPU 0 instructions: 1990000004 cycles: 7159079771 heartbeat IPC: 0.253392 cumulative IPC: 0.211933 (Simulation time: 12 hr 41 min 59 sec) 
*** Reached end of trace: traces/619.lbm_s-3766B.champsimtrace.xz
Heartbeat CPU 0 instructions: 2000000000 cycles: 7196765295 heartbeat IPC: 0.265354 cumulative IPC: 0.212218 (Simulation time: 12 hr 47 min 45 sec) 
Finished CPU 0 instructions: 1500000003 cycles: 7068202987 cumulative IPC: 0.212218 (Simulation time: 12 hr 47 min 45 sec) 

ChampSim completed all CPUs

Region of Interest Statistics

CPU 0 cumulative IPC: 0.212218 instructions: 1500000003 cycles: 7068202987
cpu0_DTLB TOTAL     ACCESS:  267057014  HIT:  265017536  MISS:    2039478
cpu0_DTLB LOAD      ACCESS:  118880970  HIT:  118604218  MISS:     276752
cpu0_DTLB RFO       ACCESS:  148176044  HIT:  146413318  MISS:    1762726
cpu0_DTLB PREFETCH  ACCESS:          0  HIT:          0  MISS:          0
cpu0_DTLB WRITEBACK ACCESS:          0  HIT:          0  MISS:          0
cpu0_DTLB TRANSLATION ACCESS:          0  HIT:          0  MISS:          0
cpu0_DTLB PREFETCH  REQUESTED:          0  ISSUED:          0  USEFUL:          0  USELESS:          0
cpu0_DTLB AVERAGE MISS LATENCY: 516.181 cycles
cpu0_ITLB TOTAL     ACCESS:   28015837  HIT:   28015837  MISS:          0
cpu0_ITLB LOAD      ACCESS:   28015837  HIT:   28015837  MISS:          0
cpu0_ITLB RFO       ACCESS:          0  HIT:          0  MISS:          0
cpu0_ITLB PREFETCH  ACCESS:          0  HIT:          0  MISS:          0
cpu0_ITLB WRITEBACK ACCESS:          0  HIT:          0  MISS:          0
cpu0_ITLB TRANSLATION ACCESS:          0  HIT:          0  MISS:          0
cpu0_ITLB PREFETCH  REQUESTED:          0  ISSUED:          0  USEFUL:          0  USELESS:          0
cpu0_ITLB AVERAGE MISS LATENCY: -nan cycles
cpu0_L1I TOTAL     ACCESS:   33417620  HIT:   33417620  MISS:          0
cpu0_L1I LOAD      ACCESS:   33417620  HIT:   33417620  MISS:          0
cpu0_L1I RFO       ACCESS:          0  HIT:          0  MISS:          0
cpu0_L1I PREFETCH  ACCESS:          0  HIT:          0  MISS:          0
cpu0_L1I WRITEBACK ACCESS:          0  HIT:          0  MISS:          0
cpu0_L1I TRANSLATION ACCESS:          0  HIT:          0  MISS:          0
cpu0_L1I PREFETCH  REQUESTED:          0  ISSUED:          0  USEFUL:          0  USELESS:          0
cpu0_L1I AVERAGE MISS LATENCY: -nan cycles
cpu0_STLB TOTAL     ACCESS:    2039478  HIT:     932833  MISS:    1106645
cpu0_STLB LOAD      ACCESS:     276752  HIT:          1  MISS:     276751
cpu0_STLB RFO       ACCESS:    1762726  HIT:     932832  MISS:     829894
cpu0_STLB PREFETCH  ACCESS:          0  HIT:          0  MISS:          0
cpu0_STLB WRITEBACK ACCESS:          0  HIT:          0  MISS:          0
cpu0_STLB TRANSLATION ACCESS:          0  HIT:          0  MISS:          0
cpu0_STLB PREFETCH  REQUESTED:          0  ISSUED:          0  USEFUL:          0  USELESS:          0
cpu0_STLB AVERAGE MISS LATENCY: 934.569 cycles
cpu0_L1D TOTAL     ACCESS:  354998697  HIT:  238167586  MISS:  116831111
cpu0_L1D LOAD      ACCESS:   84352792  HIT:   66650202  MISS:   17702590
cpu0_L1D RFO       ACCESS:  269603286  HIT:  170475256  MISS:   99128030
cpu0_L1D PREFETCH  ACCESS:          0  HIT:          0  MISS:          0
cpu0_L1D WRITEBACK ACCESS:          0  HIT:          0  MISS:          0
cpu0_L1D TRANSLATION ACCESS:    1042619  HIT:    1042128  MISS:        491
cpu0_L1D PREFETCH  REQUESTED:          0  ISSUED:          0  USEFUL:          0  USELESS:          0
cpu0_L1D AVERAGE MISS LATENCY: 755.261 cycles
cpu0_L2C TOTAL     ACCESS:  215959145  HIT:  143525689  MISS:   72433456
cpu0_L2C LOAD      ACCESS:   17702588  HIT:        479  MISS:   17702109
cpu0_L2C RFO       ACCESS:   99128006  HIT:   44400449  MISS:   54727557
cpu0_L2C PREFETCH  ACCESS:          0  HIT:          0  MISS:          0
cpu0_L2C WRITEBACK ACCESS:   99128060  HIT:   99124761  MISS:       3299
cpu0_L2C TRANSLATION ACCESS:        491  HIT:          0  MISS:        491
cpu0_L2C PREFETCH  REQUESTED:          0  ISSUED:          0  USEFUL:          0  USELESS:          0
cpu0_L2C AVERAGE MISS LATENCY: 1200.37 cycles
LLC TOTAL     ACCESS:  127158839  HIT:   56351814  MISS:   70807025
LLC LOAD      ACCESS:   17702109  HIT:        248  MISS:   17701861
LLC RFO       ACCESS:   54725359  HIT:    1623427  MISS:   53101932
LLC PREFETCH  ACCESS:          0  HIT:          0  MISS:          0
LLC WRITEBACK ACCESS:   54730880  HIT:   54728139  MISS:       2741
LLC TRANSLATION ACCESS:        491  HIT:          0  MISS:        491
LLC PREFETCH  REQUESTED:          0  ISSUED:          0  USEFUL:          0  USELESS:          0
LLC AVERAGE MISS LATENCY: 1206.46 cycles
~~~~~~~~~~Reuse Distance Profiler output~~~~~~~~~~
0	78812496	9342736
1	49587200	10642608
2	25499856	9315488
3	13894240	6991008
4	15183104	6086528
5	10808000	5544720
6	3172976	2624288
7	2604032	1933088
8	2043392	640928
9	4315296	1968752
10	2797872	2054848
11	6030944	2859872
12	2397840	1236400
13	1435840	266256
14	1200016	164256
15	744624	87728
16	592736	81104
17	682336	180032
18	1141824	691920
19	1149024	525040
20	4017920	1244304
21	1135632	141808
22	3495248	1117424
23	2801664	92304
24	3142032	1251824
25	1019040	84752
26	689232	140832
27	770992	78320
28	1575456	67712
29	1690864	122576
30	1781280	159968
31	1911056	713312
32	2342656	1410608
33	4809296	3538624
34	2664832	1061840
35	2463488	595904
36	1503040	428080
37	1432448	762880
38	879792	381584
39	664128	122608
40	605056	131552
41	605792	108144
42	678752	188800
43	855584	426960
44	1081856	587088
45	1167600	254128
46	1675280	1098112
47	1073808	251520
48	614464	116992
49	1847408	175168
50	352704	85584
51	641360	357664
52	456336	266896
53	1923216	702720
54	449328	261168
55	1062304	252544
56	682880	152624
57	1149600	581056
58	927616	193248
59	627904	82128
60	450240	110720
61	837056	56592
62	934480	52816
63	671376	69008
64	354032	110880
66	763152	633856
68	655408	546336
70	469792	321936
72	376576	109136
74	354320	86960
76	352080	185984
78	403584	204384
80	583536	424688
82	844208	646288
84	1272592	560080
86	990544	418016
88	1274352	289088
90	1414640	255696
92	2291664	1248032
94	2522560	1004016
96	1652896	444560
98	2083216	1223184
100	1605952	439040
102	878992	256512
104	381072	95968
106	385712	88048
108	276592	93920
110	326208	110976
112	225152	72528
114	235808	64768
116	268992	70944
118	249440	61376
120	213312	56704
122	165440	62688
124	170720	45952
126	157728	49440
128	249232	86464
132	179008	73968
136	167232	64576
140	154224	56704
144	144592	44064
148	104688	32304
152	112848	36000
156	119856	22928
160	137632	21312
164	97248	19712
168	78256	17136
172	169040	20384
176	1064400	27280
180	818912	16768
184	715504	11568
188	1495312	11856
192	1052256	14080
196	1758432	8784
200	1272432	7120
204	68832	7104
208	32816	7280
212	20352	6720
216	33392	8800
220	46544	9136
224	49056	11632
228	52848	13040
232	44528	12560
236	43232	10320
240	46096	10512
244	42864	12048
248	31408	10752
252	27024	11328
256	85552	29216
264	106688	26288
272	94160	31280
280	97728	29136
288	84656	28688
296	91872	36336
304	113504	30944
312	99184	34560
320	103312	33696
328	86096	33536
336	83760	36896
344	109232	32720
352	96032	33920
360	89664	31776
368	88752	32608
376	66400	30032
384	90480	27712
392	84560	24544
400	74448	24032
408	75264	25248
416	53136	21952
424	52704	17296
432	64800	15360
440	52880	15120
448	55216	15024
456	39648	12048
464	31904	10336
472	33984	8048
480	28576	7648
488	29872	7200
496	26288	6160
504	16320	5168
512	22240	6528
528	20192	5504
544	14144	4048
560	8240	3040
576	9184	2672
592	7456	2880
608	6800	2576
624	7424	2448
640	6672	2704
656	8192	2496
672	8016	2624
688	5392	1856
704	6576	1936
720	5776	2016
736	4448	1328
752	5360	1424
768	3632	1136
784	3120	912
800	3520	1024
816	2032	672
832	2128	528
848	2048	512
864	1344	416
880	1600	384
896	1104	240
912	832	208
928	880	192
944	704	160
960	592	192
976	384	64
992	352	96
1008	448	144
1024	704	304
1056	624	176
1088	544	128
1120	624	256
1152	448	160
1184	160	80
1216	304	112
1248	96	48
1280	192	80
1312	48	16
1344	64	48
1376	0	0
1408	112	64
1440	32	0
1472	32	0
1504	64	16
1536	16	0
1568	0	0
1600	0	0
1632	0	0
1664	0	0
1696	0	0
1728	0	0
1760	0	0
1792	0	0
1824	0	0
1856	0	0
1888	0	0
1920	0	0
1952	0	0
1984	0	0
2016	0	0
2048	0	0
2112	0	0
2176	0	0
2240	0	0
2304	0	0
2368	0	0
2432	0	0
2496	0	0
2560	0	0
2624	0	0
2688	0	0
2752	0	0
2816	0	0
2880	0	0
2944	0	0
3008	0	0
3072	0	0
3136	0	0
3200	0	0
3264	0	0
3328	0	0
3392	0	0
3456	0	0
3520	0	0
3584	0	0
3648	0	0
3712	0	0
3776	0	0
3840	0	0
3904	16	0
3968	32	0
4032	256	0
4096	167408	0
4224	35408	0
4352	29616	0
4480	35552	0
4608	4416	0
4736	4160	0
4864	4240	0
4992	4208	0
5120	4016	0
5248	4528	0
5376	4464	0
5504	4192	0
5632	5856	0
5760	6256	0
5888	8400	0
6016	12800	0
6144	18768	0
6272	27760	0
6400	38160	0
6528	52240	0
6656	73216	0
6784	93984	0
6912	125040	0
7040	174144	0
7168	213536	0
7296	268912	0
7424	349776	0
7552	432832	0
7680	523936	0
7808	642480	0
7936	737856	0
8064	858496	0
8192	2027472	0
8448	2583456	416
8704	3060032	0
8960	3394240	256
9216	3724144	0
9472	3802128	0
9728	3749808	0
9984	3530464	0
10240	3160000	0
10496	2772304	0
10752	2368512	0
11008	1909712	0
11264	1505776	0
11520	1198048	0
11776	904192	0
12032	654464	0
12288	484176	0
12544	355840	0
12800	260320	0
13056	208224	0
13312	169808	0
13568	144832	0
13824	141408	0
14080	132080	0
14336	133488	0
14592	146352	0
14848	157728	0
15104	167440	0
15360	173696	0
15616	195056	0
15872	208704	0
16128	222192	0
16384	515776	0
16896	605376	0
17408	754224	0
17920	874400	0
18432	952624	0
18944	901392	0
19456	1878576	0
19968	811936	0
20480	591472	0
20992	527232	0
21504	436912	0
22016	359280	0
22528	276960	0
23040	221600	0
23552	161824	0
24064	114752	0
24576	82032	0
25088	60016	0
25600	46496	0
26112	38560	0
26624	27872	0
27136	23728	0
27648	21296	0
28160	21056	0
28672	21408	0
29184	19056	0
29696	19472	0
30208	19600	0
30720	18704	0
31232	18496	0
31744	17440	0
32256	17760	0
32768	33600	0
33792	31104	0
34816	38256	0
35840	45072	0
36864	34240	0
37888	12464	0
38912	218096	0
39936	13584	0
40960	0	0
41984	0	0
43008	0	0
44032	0	0
45056	0	0
46080	0	0
47104	0	0
48128	0	0
49152	0	0
50176	0	0
51200	0	0
52224	0	0
53248	0	0
54272	0	0
55296	0	0
56320	0	0
57344	0	0
58368	0	0
59392	0	0
60416	0	0
61440	0	0
62464	0	0
63488	0	0
64512	0	0
65536	0	0
67584	0	0
69632	0	0
71680	0	0
73728	0	0
75776	0	0
77824	0	0
79872	0	0
81920	0	0
83968	0	0
86016	0	0
88064	0	0
90112	0	0
92160	0	0
94208	0	0
96256	0	0
98304	0	0
100352	0	0
102400	0	0
104448	0	0
106496	0	0
108544	0	0
110592	0	0
112640	0	0
114688	0	0
116736	0	0
118784	0	0
120832	0	0
122880	0	0
124928	0	0
126976	0	0
129024	0	0
131072	0	0
135168	0	0
139264	0	0
143360	0	0
147456	0	0
151552	0	0
155648	0	0
159744	0	0
163840	0	0
167936	0	0
172032	0	0
176128	0	0
180224	0	0
184320	0	0
188416	0	0
192512	0	0
196608	0	0
200704	0	0
204800	0	0
208896	0	0
212992	0	0
217088	0	0
221184	0	0
225280	0	0
229376	0	0
233472	0	0
237568	0	0
241664	0	0
245760	0	0
249856	0	0
253952	0	0
258048	0	0
262144	0	0
270336	0	0
278528	0	0
286720	0	0
294912	0	0
303104	0	0
311296	0	0
319488	0	0
327680	0	0
335872	0	0
344064	0	0
352256	0	0
360448	0	0
368640	0	0
376832	0	0
385024	0	0
393216	0	0
401408	0	0
409600	0	0
417792	0	0
425984	0	0
434176	0	0
442368	0	0
450560	0	0
458752	0	0
466944	0	0
475136	0	0
483328	0	0
491520	0	0
499712	0	0
507904	0	0
516096	0	0
524288	0	0
540672	0	0
557056	0	0
573440	0	0
589824	0	0
606208	0	0
622592	0	0
638976	0	0
655360	0	0
671744	0	0
688128	0	0
704512	0	0
720896	0	0
737280	0	0
753664	0	0
770048	0	0
786432	0	0
802816	0	0
819200	0	0
835584	0	0
851968	0	0
868352	0	0
884736	0	0
901120	0	0
917504	0	0
933888	0	0
950272	0	0
966656	0	0
983040	0	0
999424	0	0
1015808	0	0
1032192	0	0
1048576	0	0
1081344	0	0
1114112	0	0
1146880	0	0
1179648	0	0
1212416	0	0
1245184	0	0
1277952	0	0
1310720	0	0
1343488	0	0
1376256	0	0
1409024	0	0
1441792	0	0
1474560	0	0
1507328	0	0
1540096	0	0
1572864	0	0
1605632	2400	0
1638400	58096	0
1671168	187200	0
1703936	276544	0
1736704	180672	0
1769472	210752	0
1802240	130896	0
1835008	102080	0
1867776	403088	0
1900544	2937360	0
1933312	8165408	0
1966080	12995872	0
1998848	7696864	0
2031616	3636688	0
2064384	3045744	0
2097152	2846848	0
2162688	543632	0
2228224	165056	0
2293760	195904	0
2359296	147680	0
2424832	38224	0
2490368	34912	0
2555904	38928	0
2621440	40384	0
2686976	29824	0
2752512	29680	0
2818048	27712	0
2883584	26864	0
2949120	25184	0
3014656	35680	0
3080192	25744	0
3145728	24096	0
3211264	22976	0
3276800	22160	0
3342336	21200	0
3407872	22304	0
3473408	22288	0
3538944	20256	0
3604480	44656	0
3670016	46480	0
3735552	40720	0
3801088	40800	0
3866624	730496	0
3932160	243744	0
3997696	0	0
4063232	0	0
4128768	0	0
4194304	0	0
4325376	0	0
4456448	0	0
4587520	0	0
4718592	0	0
4849664	0	0
4980736	0	0
5111808	0	0
5242880	0	0
5373952	0	0
5505024	0	0
5636096	0	0
5767168	0	0
5898240	0	0
6029312	0	0
6160384	0	0
6291456	0	0
6422528	0	0
6553600	0	0
6684672	0	0
6815744	0	0
6946816	0	0
7077888	0	0
7208960	0	0
7340032	0	0
7471104	0	0
7602176	0	0
7733248	0	0
7864320	0	0
7995392	0	0
8126464	0	0
8257536	0	0
8388608	0	0
8650752	0	0
8912896	0	0
9175040	0	0
9437184	0	0
9699328	0	0
9961472	0	0
10223616	0	0
10485760	0	0
10747904	0	0
11010048	0	0
11272192	0	0
11534336	0	0
11796480	0	0
12058624	0	0
12320768	0	0
12582912	0	0
12845056	0	0
13107200	0	0
13369344	0	0
13631488	0	0
13893632	0	0
14155776	0	0
14417920	0	0
14680064	0	0
14942208	0	0
15204352	0	0
15466496	0	0
15728640	0	0
15990784	0	0
16252928	0	0
16515072	0	0
16777216	0	0
17301504	0	0
17825792	0	0
18350080	0	0
18874368	0	0
19398656	0	0
19922944	0	0
20447232	0	0
20971520	0	0
21495808	0	0
22020096	0	0
22544384	0	0
23068672	0	0
23592960	0	0
24117248	0	0
24641536	0	0
25165824	0	0
25690112	0	0
26214400	0	0
26738688	0	0
27262976	0	0
27787264	0	0
28311552	0	0
28835840	0	0
29360128	0	0
29884416	0	0
30408704	0	0
30932992	0	0
31457280	0	0
31981568	0	0
32505856	0	0
33030144	0	0
33554432	0	0
34603008	0	0
35651584	0	0
36700160	0	0
37748736	0	0
38797312	0	0
39845888	0	0
40894464	0	0
41943040	0	0
42991616	0	0
44040192	0	0
45088768	0	0
46137344	0	0
47185920	0	0
48234496	0	0
49283072	0	0
50331648	0	0
51380224	0	0
52428800	0	0
53477376	0	0
54525952	0	0
55574528	0	0
56623104	0	0
57671680	0	0
58720256	0	0
59768832	0	0
60817408	0	0
61865984	0	0
62914560	0	0
63963136	0	0
65011712	0	0
66060288	0	0
67108864	0	0
69206016	0	0
71303168	0	0
73400320	0	0
75497472	0	0
77594624	0	0
79691776	0	0
81788928	0	0
83886080	0	0
85983232	0	0
88080384	0	0
90177536	0	0
92274688	0	0
94371840	0	0
96468992	0	0
98566144	0	0
100663296	0	0
102760448	0	0
104857600	0	0
106954752	0	0
109051904	0	0
111149056	0	0
113246208	0	0
115343360	0	0
117440512	0	0
119537664	0	0
121634816	0	0
123731968	0	0
125829120	0	0
127926272	0	0
130023424	0	0
132120576	0	0
134217728	0	0
138412032	0	0
142606336	0	0
146800640	0	0
150994944	0	0
155189248	0	0
159383552	0	0
163577856	0	0
167772160	0	0
171966464	0	0
176160768	0	0
180355072	0	0
184549376	0	0
188743680	0	0
192937984	0	0
197132288	0	0
201326592	0	0
205520896	0	0
209715200	0	0
213909504	0	0
218103808	0	0
222298112	0	0
226492416	0	0
230686720	0	0
234881024	0	0
239075328	0	0
243269632	0	0
247463936	0	0
251658240	0	0
255852544	0	0
260046848	0	0
264241152	0	0
268435456	0	0
276824064	0	0
285212672	0	0
293601280	0	0
301989888	0	0
310378496	0	0
318767104	0	0
327155712	0	0
335544320	0	0
343932928	0	0
352321536	0	0
360710144	0	0
369098752	0	0
377487360	0	0
385875968	0	0
394264576	0	0
402653184	0	0
411041792	0	0
419430400	0	0
427819008	0	0
436207616	0	0
444596224	0	0
452984832	0	0
461373440	0	0
469762048	0	0
478150656	0	0
486539264	0	0
494927872	0	0
503316480	0	0
511705088	0	0
520093696	0	0
528482304	0	0
536870912	0	0
553648128	0	0
570425344	0	0
587202560	0	0
603979776	0	0
620756992	0	0
637534208	0	0
654311424	0	0
671088640	0	0
687865856	0	0
704643072	0	0
721420288	0	0
738197504	0	0
754974720	0	0
771751936	0	0
788529152	0	0
805306368	0	0
822083584	0	0
838860800	0	0
855638016	0	0
872415232	0	0
889192448	0	0
905969664	0	0
922746880	0	0
939524096	0	0
956301312	0	0
973078528	0	0
989855744	0	0
1006632960	0	0
1023410176	0	0
1040187392	0	0
1056964608	0	0
1073741824	0	0
1107296256	0	0
1140850688	0	0
1174405120	0	0
1207959552	0	0
1241513984	0	0
1275068416	0	0
1308622848	0	0
1342177280	0	0
1375731712	0	0
1409286144	0	0
1442840576	0	0
1476395008	0	0
1509949440	0	0
1543503872	0	0
1577058304	0	0
1610612736	0	0
1644167168	0	0
1677721600	0	0
1711276032	0	0
1744830464	0	0
1778384896	0	0
1811939328	0	0
1845493760	0	0
1879048192	0	0
1912602624	0	0
1946157056	0	0
1979711488	0	0
2013265920	0	0
2046820352	0	0
2080374784	0	0
2113929216	0	0
2147483648	0	0
2214592512	0	0
2281701376	0	0
2348810240	0	0
2415919104	0	0
2483027968	0	0
2550136832	0	0
2617245696	0	0
2684354560	0	0
2751463424	0	0
2818572288	0	0
2885681152	0	0
2952790016	0	0
3019898880	0	0
3087007744	0	0
3154116608	0	0
3221225472	0	0
3288334336	0	0
3355443200	0	0
3422552064	0	0
3489660928	0	0
3556769792	0	0
3623878656	0	0
3690987520	0	0
3758096384	0	0
3825205248	0	0
3892314112	0	0
3959422976	0	0
4026531840	0	0
4093640704	0	0
4160749568	0	0
4227858432	0	0
~~~~~~~~~~Reuse Distance Profiler output end~~~~~~~~~~

DRAM Statistics
 CHANNEL 0
 RQ ROW_BUFFER_HIT:    2192335  ROW_BUFFER_MISS:   68611948
 DBUS AVG_CONGESTED_CYCLE:    4.00301
 WQ ROW_BUFFER_HIT:    1057972  ROW_BUFFER_MISS:   52046717  FULL:          0


CPU 0 Branch Prediction Accuracy: 96.0507% MPKI: 0.704921 Average ROB Occupancy at Mispredict: 258.255
Branch type MPKI
BRANCH_DIRECT_JUMP: 0
BRANCH_INDIRECT: 0
BRANCH_CONDITIONAL: 0.704921
BRANCH_DIRECT_CALL: 0
BRANCH_INDIRECT_CALL: 0
BRANCH_RETURN: 0

