
*** ChampSim Multicore Out-of-Order Simulator ***

Warmup Instructions: 500000000
Simulation Instructions: 1500000000
Number of CPUs: 1
Off-chip DRAM Size: 4 GiB Channels: 1 Width: 64-bit Data Rate: 3200 MT/s

VirtualMemory physical capacity: 8588881920 num_ppages: 2096895
VirtualMemory page size: 4096 log2_page_size: 12

CPU 0 runs traces/620.omnetpp_s-874B.champsimtrace.xz
CPU 0 Bimodal branch predictor
Basic BTB sets: 1024 ways: 8 indirect buffer size: 4096 RAS size: 64
Initializing LRU.
Initializing LRU.
Initializing LRU.
Initializing LRU.
Initializing rdLRU.
Initializing LRU.
Initializing LRU.
Heartbeat CPU 0 instructions: 10000001 cycles: 2502967 heartbeat IPC: 3.99526 cumulative IPC: 3.99526 (Simulation time: 0 hr 0 min 57 sec) 
Heartbeat CPU 0 instructions: 20000003 cycles: 5005338 heartbeat IPC: 3.99621 cumulative IPC: 3.99573 (Simulation time: 0 hr 1 min 53 sec) 
Heartbeat CPU 0 instructions: 30000000 cycles: 7508124 heartbeat IPC: 3.99555 cumulative IPC: 3.99567 (Simulation time: 0 hr 2 min 53 sec) 
Heartbeat CPU 0 instructions: 40000001 cycles: 10011309 heartbeat IPC: 3.99491 cumulative IPC: 3.99548 (Simulation time: 0 hr 3 min 59 sec) 
Heartbeat CPU 0 instructions: 50000002 cycles: 12514885 heartbeat IPC: 3.99429 cumulative IPC: 3.99524 (Simulation time: 0 hr 5 min 4 sec) 
Heartbeat CPU 0 instructions: 60000002 cycles: 15018578 heartbeat IPC: 3.9941 cumulative IPC: 3.99505 (Simulation time: 0 hr 6 min 9 sec) 
Heartbeat CPU 0 instructions: 70000000 cycles: 17521386 heartbeat IPC: 3.99551 cumulative IPC: 3.99512 (Simulation time: 0 hr 6 min 55 sec) 
Heartbeat CPU 0 instructions: 80000001 cycles: 20024487 heartbeat IPC: 3.99504 cumulative IPC: 3.99511 (Simulation time: 0 hr 7 min 47 sec) 
Heartbeat CPU 0 instructions: 90000002 cycles: 22529373 heartbeat IPC: 3.9922 cumulative IPC: 3.99479 (Simulation time: 0 hr 8 min 30 sec) 
Heartbeat CPU 0 instructions: 100000003 cycles: 25033094 heartbeat IPC: 3.99406 cumulative IPC: 3.99471 (Simulation time: 0 hr 9 min 31 sec) 
Heartbeat CPU 0 instructions: 110000000 cycles: 27536996 heartbeat IPC: 3.99377 cumulative IPC: 3.99463 (Simulation time: 0 hr 10 min 34 sec) 
Heartbeat CPU 0 instructions: 120000004 cycles: 30040647 heartbeat IPC: 3.99417 cumulative IPC: 3.99459 (Simulation time: 0 hr 11 min 38 sec) 
Heartbeat CPU 0 instructions: 130000003 cycles: 32543957 heartbeat IPC: 3.99471 cumulative IPC: 3.9946 (Simulation time: 0 hr 12 min 36 sec) 
Heartbeat CPU 0 instructions: 140000000 cycles: 35047021 heartbeat IPC: 3.9951 cumulative IPC: 3.99463 (Simulation time: 0 hr 13 min 15 sec) 
Heartbeat CPU 0 instructions: 150000000 cycles: 37550565 heartbeat IPC: 3.99434 cumulative IPC: 3.99461 (Simulation time: 0 hr 13 min 55 sec) 
Heartbeat CPU 0 instructions: 160000003 cycles: 40054553 heartbeat IPC: 3.99363 cumulative IPC: 3.99455 (Simulation time: 0 hr 14 min 35 sec) 
Heartbeat CPU 0 instructions: 170000002 cycles: 42558357 heartbeat IPC: 3.99392 cumulative IPC: 3.99452 (Simulation time: 0 hr 15 min 15 sec) 
Heartbeat CPU 0 instructions: 180000002 cycles: 45061393 heartbeat IPC: 3.99515 cumulative IPC: 3.99455 (Simulation time: 0 hr 15 min 55 sec) 
Heartbeat CPU 0 instructions: 190000000 cycles: 47564990 heartbeat IPC: 3.99425 cumulative IPC: 3.99453 (Simulation time: 0 hr 16 min 34 sec) 
Heartbeat CPU 0 instructions: 200000000 cycles: 50068094 heartbeat IPC: 3.99504 cumulative IPC: 3.99456 (Simulation time: 0 hr 17 min 14 sec) 
Heartbeat CPU 0 instructions: 210000000 cycles: 52570602 heartbeat IPC: 3.99599 cumulative IPC: 3.99463 (Simulation time: 0 hr 17 min 55 sec) 
Heartbeat CPU 0 instructions: 220000003 cycles: 55074503 heartbeat IPC: 3.99377 cumulative IPC: 3.99459 (Simulation time: 0 hr 18 min 35 sec) 
Heartbeat CPU 0 instructions: 230000002 cycles: 57577999 heartbeat IPC: 3.99441 cumulative IPC: 3.99458 (Simulation time: 0 hr 19 min 15 sec) 
Heartbeat CPU 0 instructions: 240000000 cycles: 60080606 heartbeat IPC: 3.99583 cumulative IPC: 3.99463 (Simulation time: 0 hr 19 min 55 sec) 
Heartbeat CPU 0 instructions: 250000001 cycles: 62583228 heartbeat IPC: 3.99581 cumulative IPC: 3.99468 (Simulation time: 0 hr 20 min 58 sec) 
Heartbeat CPU 0 instructions: 260000002 cycles: 65086168 heartbeat IPC: 3.9953 cumulative IPC: 3.9947 (Simulation time: 0 hr 21 min 51 sec) 
Heartbeat CPU 0 instructions: 270000002 cycles: 67588757 heartbeat IPC: 3.99586 cumulative IPC: 3.99475 (Simulation time: 0 hr 22 min 50 sec) 
Heartbeat CPU 0 instructions: 280000000 cycles: 70092274 heartbeat IPC: 3.99438 cumulative IPC: 3.99473 (Simulation time: 0 hr 23 min 28 sec) 
Heartbeat CPU 0 instructions: 290000000 cycles: 72595576 heartbeat IPC: 3.99472 cumulative IPC: 3.99473 (Simulation time: 0 hr 24 min 7 sec) 
Heartbeat CPU 0 instructions: 300000003 cycles: 75098873 heartbeat IPC: 3.99473 cumulative IPC: 3.99473 (Simulation time: 0 hr 24 min 46 sec) 
Heartbeat CPU 0 instructions: 310000001 cycles: 77602423 heartbeat IPC: 3.99433 cumulative IPC: 3.99472 (Simulation time: 0 hr 25 min 24 sec) 
Heartbeat CPU 0 instructions: 320000001 cycles: 80105550 heartbeat IPC: 3.995 cumulative IPC: 3.99473 (Simulation time: 0 hr 26 min 2 sec) 
Heartbeat CPU 0 instructions: 330000001 cycles: 82608708 heartbeat IPC: 3.99495 cumulative IPC: 3.99474 (Simulation time: 0 hr 26 min 41 sec) 
Heartbeat CPU 0 instructions: 340000000 cycles: 85111802 heartbeat IPC: 3.99506 cumulative IPC: 3.99475 (Simulation time: 0 hr 27 min 19 sec) 
Heartbeat CPU 0 instructions: 350000002 cycles: 87615334 heartbeat IPC: 3.99436 cumulative IPC: 3.99473 (Simulation time: 0 hr 28 min 15 sec) 
Heartbeat CPU 0 instructions: 360000003 cycles: 90117983 heartbeat IPC: 3.99577 cumulative IPC: 3.99476 (Simulation time: 0 hr 29 min 22 sec) 
Heartbeat CPU 0 instructions: 370000000 cycles: 92620995 heartbeat IPC: 3.99519 cumulative IPC: 3.99477 (Simulation time: 0 hr 30 min 14 sec) 
Heartbeat CPU 0 instructions: 380000001 cycles: 95124414 heartbeat IPC: 3.99454 cumulative IPC: 3.99477 (Simulation time: 0 hr 31 min 20 sec) 
Heartbeat CPU 0 instructions: 390000000 cycles: 97627295 heartbeat IPC: 3.9954 cumulative IPC: 3.99478 (Simulation time: 0 hr 32 min 26 sec) 
Heartbeat CPU 0 instructions: 400000003 cycles: 100130799 heartbeat IPC: 3.9944 cumulative IPC: 3.99477 (Simulation time: 0 hr 33 min 31 sec) 
Heartbeat CPU 0 instructions: 410000002 cycles: 102633728 heartbeat IPC: 3.99532 cumulative IPC: 3.99479 (Simulation time: 0 hr 34 min 36 sec) 
Heartbeat CPU 0 instructions: 420000001 cycles: 105137228 heartbeat IPC: 3.99441 cumulative IPC: 3.99478 (Simulation time: 0 hr 35 min 42 sec) 
Heartbeat CPU 0 instructions: 430000000 cycles: 107640133 heartbeat IPC: 3.99536 cumulative IPC: 3.99479 (Simulation time: 0 hr 36 min 48 sec) 
Heartbeat CPU 0 instructions: 440000003 cycles: 110142912 heartbeat IPC: 3.99556 cumulative IPC: 3.99481 (Simulation time: 0 hr 37 min 54 sec) 
Heartbeat CPU 0 instructions: 450000001 cycles: 112645514 heartbeat IPC: 3.99584 cumulative IPC: 3.99483 (Simulation time: 0 hr 38 min 42 sec) 
Heartbeat CPU 0 instructions: 460000003 cycles: 115148246 heartbeat IPC: 3.99563 cumulative IPC: 3.99485 (Simulation time: 0 hr 39 min 24 sec) 
Heartbeat CPU 0 instructions: 470000002 cycles: 117651271 heartbeat IPC: 3.99517 cumulative IPC: 3.99486 (Simulation time: 0 hr 40 min 29 sec) 
Heartbeat CPU 0 instructions: 480000002 cycles: 120155503 heartbeat IPC: 3.99324 cumulative IPC: 3.99482 (Simulation time: 0 hr 41 min 13 sec) 
Heartbeat CPU 0 instructions: 490000002 cycles: 122659210 heartbeat IPC: 3.99408 cumulative IPC: 3.99481 (Simulation time: 0 hr 41 min 58 sec) 
Heartbeat CPU 0 instructions: 500000000 cycles: 125162495 heartbeat IPC: 3.99475 cumulative IPC: 3.99481 (Simulation time: 0 hr 42 min 38 sec) 

Warmup complete CPU 0 instructions: 500000004 cycles: 125162496 (Simulation time: 0 hr 42 min 38 sec) 

Heartbeat CPU 0 instructions: 510000003 cycles: 143463448 heartbeat IPC: 0.54642 cumulative IPC: 0.54642 (Simulation time: 0 hr 43 min 55 sec) 
Heartbeat CPU 0 instructions: 520000002 cycles: 161635246 heartbeat IPC: 0.550303 cumulative IPC: 0.548355 (Simulation time: 0 hr 45 min 11 sec) 
Heartbeat CPU 0 instructions: 530000003 cycles: 180243534 heartbeat IPC: 0.537395 cumulative IPC: 0.544652 (Simulation time: 0 hr 47 min 19 sec) 
Heartbeat CPU 0 instructions: 540000002 cycles: 198182571 heartbeat IPC: 0.557443 cumulative IPC: 0.547795 (Simulation time: 0 hr 48 min 58 sec) 
Heartbeat CPU 0 instructions: 550000001 cycles: 216776496 heartbeat IPC: 0.53781 cumulative IPC: 0.545768 (Simulation time: 0 hr 50 min 14 sec) 
Heartbeat CPU 0 instructions: 560000004 cycles: 235401818 heartbeat IPC: 0.536904 cumulative IPC: 0.54427 (Simulation time: 0 hr 51 min 31 sec) 
Heartbeat CPU 0 instructions: 570000000 cycles: 253927420 heartbeat IPC: 0.539793 cumulative IPC: 0.543626 (Simulation time: 0 hr 52 min 47 sec) 
Heartbeat CPU 0 instructions: 580000001 cycles: 272267792 heartbeat IPC: 0.545245 cumulative IPC: 0.543828 (Simulation time: 0 hr 54 min 2 sec) 
Heartbeat CPU 0 instructions: 590000004 cycles: 290924554 heartbeat IPC: 0.535999 cumulative IPC: 0.542947 (Simulation time: 0 hr 55 min 57 sec) 
Heartbeat CPU 0 instructions: 600000001 cycles: 309296177 heartbeat IPC: 0.544318 cumulative IPC: 0.543084 (Simulation time: 0 hr 58 min 2 sec) 
Heartbeat CPU 0 instructions: 610000000 cycles: 327842622 heartbeat IPC: 0.539187 cumulative IPC: 0.542727 (Simulation time: 0 hr 59 min 46 sec) 
Heartbeat CPU 0 instructions: 620000000 cycles: 346884499 heartbeat IPC: 0.525158 cumulative IPC: 0.541218 (Simulation time: 1 hr 1 min 16 sec) 
Heartbeat CPU 0 instructions: 630000001 cycles: 365330638 heartbeat IPC: 0.542119 cumulative IPC: 0.541287 (Simulation time: 1 hr 2 min 28 sec) 
Heartbeat CPU 0 instructions: 640000001 cycles: 383815668 heartbeat IPC: 0.540978 cumulative IPC: 0.541265 (Simulation time: 1 hr 3 min 41 sec) 
Heartbeat CPU 0 instructions: 650000003 cycles: 402397178 heartbeat IPC: 0.53817 cumulative IPC: 0.541058 (Simulation time: 1 hr 4 min 54 sec) 
Heartbeat CPU 0 instructions: 660000000 cycles: 420785504 heartbeat IPC: 0.543823 cumulative IPC: 0.54123 (Simulation time: 1 hr 6 min 8 sec) 
Heartbeat CPU 0 instructions: 670000000 cycles: 439508269 heartbeat IPC: 0.534109 cumulative IPC: 0.540806 (Simulation time: 1 hr 7 min 20 sec) 
Heartbeat CPU 0 instructions: 680000002 cycles: 457967595 heartbeat IPC: 0.541732 cumulative IPC: 0.540857 (Simulation time: 1 hr 9 min 17 sec) 
Heartbeat CPU 0 instructions: 690000002 cycles: 476677234 heartbeat IPC: 0.534484 cumulative IPC: 0.540518 (Simulation time: 1 hr 10 min 36 sec) 
Heartbeat CPU 0 instructions: 700000000 cycles: 495097544 heartbeat IPC: 0.542879 cumulative IPC: 0.540635 (Simulation time: 1 hr 11 min 49 sec) 
Heartbeat CPU 0 instructions: 710000001 cycles: 513574316 heartbeat IPC: 0.54122 cumulative IPC: 0.540663 (Simulation time: 1 hr 13 min 2 sec) 
Heartbeat CPU 0 instructions: 720000002 cycles: 532102622 heartbeat IPC: 0.539715 cumulative IPC: 0.54062 (Simulation time: 1 hr 14 min 24 sec) 
Heartbeat CPU 0 instructions: 730000002 cycles: 550900022 heartbeat IPC: 0.531988 cumulative IPC: 0.540239 (Simulation time: 1 hr 15 min 39 sec) 
Heartbeat CPU 0 instructions: 740000000 cycles: 569434028 heartbeat IPC: 0.539549 cumulative IPC: 0.54021 (Simulation time: 1 hr 16 min 55 sec) 
Heartbeat CPU 0 instructions: 750000003 cycles: 588015149 heartbeat IPC: 0.538181 cumulative IPC: 0.540129 (Simulation time: 1 hr 18 min 29 sec) 
Heartbeat CPU 0 instructions: 760000001 cycles: 606566626 heartbeat IPC: 0.539041 cumulative IPC: 0.540087 (Simulation time: 1 hr 20 min 38 sec) 
Heartbeat CPU 0 instructions: 770000003 cycles: 625764593 heartbeat IPC: 0.520889 cumulative IPC: 0.539351 (Simulation time: 1 hr 22 min 48 sec) 
Heartbeat CPU 0 instructions: 780000000 cycles: 644509812 heartbeat IPC: 0.533469 cumulative IPC: 0.539138 (Simulation time: 1 hr 24 min 1 sec) 
Heartbeat CPU 0 instructions: 790000004 cycles: 664039607 heartbeat IPC: 0.512038 cumulative IPC: 0.538156 (Simulation time: 1 hr 25 min 18 sec) 
Heartbeat CPU 0 instructions: 800000003 cycles: 682851373 heartbeat IPC: 0.531582 cumulative IPC: 0.537934 (Simulation time: 1 hr 26 min 34 sec) 
Heartbeat CPU 0 instructions: 810000002 cycles: 701996952 heartbeat IPC: 0.522314 cumulative IPC: 0.537416 (Simulation time: 1 hr 27 min 52 sec) 
Heartbeat CPU 0 instructions: 820000000 cycles: 721005642 heartbeat IPC: 0.526075 cumulative IPC: 0.537054 (Simulation time: 1 hr 29 min 11 sec) 
Heartbeat CPU 0 instructions: 830000001 cycles: 740304240 heartbeat IPC: 0.518172 cumulative IPC: 0.536462 (Simulation time: 1 hr 30 min 47 sec) 
Heartbeat CPU 0 instructions: 840000000 cycles: 759679834 heartbeat IPC: 0.516113 cumulative IPC: 0.53584 (Simulation time: 1 hr 32 min 34 sec) 
Heartbeat CPU 0 instructions: 850000001 cycles: 778763829 heartbeat IPC: 0.523999 cumulative IPC: 0.535495 (Simulation time: 1 hr 33 min 56 sec) 
Heartbeat CPU 0 instructions: 860000002 cycles: 797867205 heartbeat IPC: 0.523468 cumulative IPC: 0.535153 (Simulation time: 1 hr 35 min 28 sec) 
Heartbeat CPU 0 instructions: 870000000 cycles: 817309675 heartbeat IPC: 0.514338 cumulative IPC: 0.534568 (Simulation time: 1 hr 37 min 46 sec) 
Heartbeat CPU 0 instructions: 880000001 cycles: 836182842 heartbeat IPC: 0.529853 cumulative IPC: 0.534443 (Simulation time: 1 hr 39 min 37 sec) 
Heartbeat CPU 0 instructions: 890000001 cycles: 854983409 heartbeat IPC: 0.531899 cumulative IPC: 0.534378 (Simulation time: 1 hr 40 min 51 sec) 
Heartbeat CPU 0 instructions: 900000003 cycles: 873719397 heartbeat IPC: 0.533732 cumulative IPC: 0.534362 (Simulation time: 1 hr 42 min 5 sec) 
Heartbeat CPU 0 instructions: 910000001 cycles: 892559459 heartbeat IPC: 0.530784 cumulative IPC: 0.534274 (Simulation time: 1 hr 43 min 19 sec) 
Heartbeat CPU 0 instructions: 920000001 cycles: 911546241 heartbeat IPC: 0.526682 cumulative IPC: 0.53409 (Simulation time: 1 hr 44 min 33 sec) 
Heartbeat CPU 0 instructions: 930000001 cycles: 930436799 heartbeat IPC: 0.529365 cumulative IPC: 0.53398 (Simulation time: 1 hr 45 min 47 sec) 
Heartbeat CPU 0 instructions: 940000003 cycles: 948959561 heartbeat IPC: 0.539876 cumulative IPC: 0.534112 (Simulation time: 1 hr 47 min 0 sec) 
Heartbeat CPU 0 instructions: 950000002 cycles: 967624021 heartbeat IPC: 0.535778 cumulative IPC: 0.534149 (Simulation time: 1 hr 48 min 57 sec) 
Heartbeat CPU 0 instructions: 960000000 cycles: 986063272 heartbeat IPC: 0.542321 cumulative IPC: 0.534324 (Simulation time: 1 hr 51 min 10 sec) 
Heartbeat CPU 0 instructions: 970000000 cycles: 1004742569 heartbeat IPC: 0.535352 cumulative IPC: 0.534346 (Simulation time: 1 hr 52 min 58 sec) 
Heartbeat CPU 0 instructions: 980000000 cycles: 1023626428 heartbeat IPC: 0.529553 cumulative IPC: 0.534245 (Simulation time: 1 hr 54 min 36 sec) 
Heartbeat CPU 0 instructions: 990000003 cycles: 1042047097 heartbeat IPC: 0.542869 cumulative IPC: 0.534418 (Simulation time: 1 hr 56 min 39 sec) 
Heartbeat CPU 0 instructions: 1000000004 cycles: 1060606202 heartbeat IPC: 0.538819 cumulative IPC: 0.534506 (Simulation time: 1 hr 57 min 53 sec) 
Heartbeat CPU 0 instructions: 1010000003 cycles: 1079284245 heartbeat IPC: 0.535388 cumulative IPC: 0.534523 (Simulation time: 1 hr 59 min 8 sec) 
Heartbeat CPU 0 instructions: 1020000001 cycles: 1098019264 heartbeat IPC: 0.53376 cumulative IPC: 0.534508 (Simulation time: 2 hr 0 min 23 sec) 
Heartbeat CPU 0 instructions: 1030000003 cycles: 1117440036 heartbeat IPC: 0.514913 cumulative IPC: 0.534125 (Simulation time: 2 hr 2 min 10 sec) 
Heartbeat CPU 0 instructions: 1040000004 cycles: 1136584201 heartbeat IPC: 0.522352 cumulative IPC: 0.533902 (Simulation time: 2 hr 4 min 10 sec) 
Heartbeat CPU 0 instructions: 1050000004 cycles: 1155635657 heartbeat IPC: 0.524894 cumulative IPC: 0.533735 (Simulation time: 2 hr 5 min 25 sec) 
Heartbeat CPU 0 instructions: 1060000003 cycles: 1174802492 heartbeat IPC: 0.521734 cumulative IPC: 0.533516 (Simulation time: 2 hr 6 min 41 sec) 
Heartbeat CPU 0 instructions: 1070000004 cycles: 1194069617 heartbeat IPC: 0.519019 cumulative IPC: 0.533255 (Simulation time: 2 hr 8 min 35 sec) 
Heartbeat CPU 0 instructions: 1080000000 cycles: 1213146686 heartbeat IPC: 0.524189 cumulative IPC: 0.533096 (Simulation time: 2 hr 10 min 45 sec) 
Heartbeat CPU 0 instructions: 1090000001 cycles: 1231928450 heartbeat IPC: 0.532431 cumulative IPC: 0.533085 (Simulation time: 2 hr 12 min 59 sec) 
Heartbeat CPU 0 instructions: 1100000002 cycles: 1250474429 heartbeat IPC: 0.5392 cumulative IPC: 0.533185 (Simulation time: 2 hr 15 min 11 sec) 
Heartbeat CPU 0 instructions: 1110000000 cycles: 1269046876 heartbeat IPC: 0.538432 cumulative IPC: 0.533271 (Simulation time: 2 hr 17 min 18 sec) 
Heartbeat CPU 0 instructions: 1120000002 cycles: 1287507116 heartbeat IPC: 0.541705 cumulative IPC: 0.533405 (Simulation time: 2 hr 19 min 30 sec) 
Heartbeat CPU 0 instructions: 1130000004 cycles: 1306413541 heartbeat IPC: 0.528921 cumulative IPC: 0.533333 (Simulation time: 2 hr 21 min 44 sec) 
Heartbeat CPU 0 instructions: 1140000000 cycles: 1324917260 heartbeat IPC: 0.540432 cumulative IPC: 0.533442 (Simulation time: 2 hr 23 min 57 sec) 
Heartbeat CPU 0 instructions: 1150000000 cycles: 1343618935 heartbeat IPC: 0.534711 cumulative IPC: 0.533462 (Simulation time: 2 hr 25 min 50 sec) 
Heartbeat CPU 0 instructions: 1160000002 cycles: 1362254876 heartbeat IPC: 0.536598 cumulative IPC: 0.533509 (Simulation time: 2 hr 27 min 26 sec) 
Heartbeat CPU 0 instructions: 1170000004 cycles: 1380717938 heartbeat IPC: 0.541622 cumulative IPC: 0.533628 (Simulation time: 2 hr 28 min 39 sec) 
Heartbeat CPU 0 instructions: 1180000000 cycles: 1399453940 heartbeat IPC: 0.533732 cumulative IPC: 0.53363 (Simulation time: 2 hr 30 min 6 sec) 
Heartbeat CPU 0 instructions: 1190000003 cycles: 1418008142 heartbeat IPC: 0.538962 cumulative IPC: 0.533706 (Simulation time: 2 hr 31 min 18 sec) 
Heartbeat CPU 0 instructions: 1200000001 cycles: 1436836905 heartbeat IPC: 0.531102 cumulative IPC: 0.533669 (Simulation time: 2 hr 32 min 32 sec) 
Heartbeat CPU 0 instructions: 1210000001 cycles: 1455265852 heartbeat IPC: 0.542625 cumulative IPC: 0.533793 (Simulation time: 2 hr 33 min 43 sec) 
Heartbeat CPU 0 instructions: 1220000001 cycles: 1473967050 heartbeat IPC: 0.534725 cumulative IPC: 0.533806 (Simulation time: 2 hr 34 min 55 sec) 
Heartbeat CPU 0 instructions: 1230000003 cycles: 1493020878 heartbeat IPC: 0.524829 cumulative IPC: 0.533681 (Simulation time: 2 hr 36 min 8 sec) 
Heartbeat CPU 0 instructions: 1240000003 cycles: 1512003015 heartbeat IPC: 0.526811 cumulative IPC: 0.533587 (Simulation time: 2 hr 37 min 28 sec) 
Heartbeat CPU 0 instructions: 1250000003 cycles: 1530995899 heartbeat IPC: 0.526513 cumulative IPC: 0.533491 (Simulation time: 2 hr 38 min 46 sec) 
Heartbeat CPU 0 instructions: 1260000000 cycles: 1549977705 heartbeat IPC: 0.52682 cumulative IPC: 0.533403 (Simulation time: 2 hr 40 min 45 sec) 
Heartbeat CPU 0 instructions: 1270000004 cycles: 1568487173 heartbeat IPC: 0.540264 cumulative IPC: 0.53349 (Simulation time: 2 hr 42 min 44 sec) 
Heartbeat CPU 0 instructions: 1280000004 cycles: 1587145761 heartbeat IPC: 0.535946 cumulative IPC: 0.533522 (Simulation time: 2 hr 43 min 59 sec) 
Heartbeat CPU 0 instructions: 1290000000 cycles: 1606150585 heartbeat IPC: 0.526182 cumulative IPC: 0.533428 (Simulation time: 2 hr 45 min 16 sec) 
Heartbeat CPU 0 instructions: 1300000002 cycles: 1625143877 heartbeat IPC: 0.526502 cumulative IPC: 0.53334 (Simulation time: 2 hr 46 min 34 sec) 
Heartbeat CPU 0 instructions: 1310000000 cycles: 1643762326 heartbeat IPC: 0.537102 cumulative IPC: 0.533386 (Simulation time: 2 hr 47 min 51 sec) 
Heartbeat CPU 0 instructions: 1320000002 cycles: 1662466861 heartbeat IPC: 0.53463 cumulative IPC: 0.533401 (Simulation time: 2 hr 49 min 3 sec) 
Heartbeat CPU 0 instructions: 1330000000 cycles: 1681418693 heartbeat IPC: 0.527653 cumulative IPC: 0.533331 (Simulation time: 2 hr 50 min 31 sec) 
Heartbeat CPU 0 instructions: 1340000002 cycles: 1699985331 heartbeat IPC: 0.538601 cumulative IPC: 0.533393 (Simulation time: 2 hr 51 min 45 sec) 
Heartbeat CPU 0 instructions: 1350000003 cycles: 1718636531 heartbeat IPC: 0.536159 cumulative IPC: 0.533426 (Simulation time: 2 hr 53 min 3 sec) 
Heartbeat CPU 0 instructions: 1360000003 cycles: 1737423418 heartbeat IPC: 0.532286 cumulative IPC: 0.533412 (Simulation time: 2 hr 54 min 20 sec) 
Heartbeat CPU 0 instructions: 1370000001 cycles: 1756105584 heartbeat IPC: 0.53527 cumulative IPC: 0.533434 (Simulation time: 2 hr 55 min 43 sec) 
Heartbeat CPU 0 instructions: 1380000002 cycles: 1774630174 heartbeat IPC: 0.539823 cumulative IPC: 0.533505 (Simulation time: 2 hr 57 min 0 sec) 
Heartbeat CPU 0 instructions: 1390000000 cycles: 1793888808 heartbeat IPC: 0.519248 cumulative IPC: 0.533341 (Simulation time: 2 hr 58 min 19 sec) 
Heartbeat CPU 0 instructions: 1400000001 cycles: 1812337330 heartbeat IPC: 0.542049 cumulative IPC: 0.533436 (Simulation time: 2 hr 59 min 35 sec) 
Heartbeat CPU 0 instructions: 1410000004 cycles: 1830928132 heartbeat IPC: 0.537901 cumulative IPC: 0.533485 (Simulation time: 3 hr 0 min 50 sec) 
Heartbeat CPU 0 instructions: 1420000004 cycles: 1850225804 heartbeat IPC: 0.518197 cumulative IPC: 0.533314 (Simulation time: 3 hr 2 min 10 sec) 
Heartbeat CPU 0 instructions: 1430000001 cycles: 1868804237 heartbeat IPC: 0.538258 cumulative IPC: 0.533366 (Simulation time: 3 hr 3 min 23 sec) 
Heartbeat CPU 0 instructions: 1440000001 cycles: 1887413644 heartbeat IPC: 0.537363 cumulative IPC: 0.533409 (Simulation time: 3 hr 4 min 40 sec) 
Heartbeat CPU 0 instructions: 1450000000 cycles: 1906069986 heartbeat IPC: 0.536011 cumulative IPC: 0.533436 (Simulation time: 3 hr 5 min 54 sec) 
Heartbeat CPU 0 instructions: 1460000003 cycles: 1924944480 heartbeat IPC: 0.529816 cumulative IPC: 0.533398 (Simulation time: 3 hr 7 min 9 sec) 
Heartbeat CPU 0 instructions: 1470000000 cycles: 1943688424 heartbeat IPC: 0.533505 cumulative IPC: 0.533399 (Simulation time: 3 hr 8 min 25 sec) 
Heartbeat CPU 0 instructions: 1480000001 cycles: 1962369299 heartbeat IPC: 0.535307 cumulative IPC: 0.533418 (Simulation time: 3 hr 9 min 39 sec) 
Heartbeat CPU 0 instructions: 1490000001 cycles: 1981074593 heartbeat IPC: 0.534608 cumulative IPC: 0.53343 (Simulation time: 3 hr 10 min 51 sec) 
Heartbeat CPU 0 instructions: 1500000002 cycles: 1999735787 heartbeat IPC: 0.535871 cumulative IPC: 0.533455 (Simulation time: 3 hr 12 min 4 sec) 
Heartbeat CPU 0 instructions: 1510000001 cycles: 2018620788 heartbeat IPC: 0.529521 cumulative IPC: 0.533415 (Simulation time: 3 hr 13 min 17 sec) 
Heartbeat CPU 0 instructions: 1520000002 cycles: 2037400139 heartbeat IPC: 0.5325 cumulative IPC: 0.533406 (Simulation time: 3 hr 14 min 29 sec) 
Heartbeat CPU 0 instructions: 1530000003 cycles: 2056569772 heartbeat IPC: 0.521658 cumulative IPC: 0.53329 (Simulation time: 3 hr 15 min 42 sec) 
Heartbeat CPU 0 instructions: 1540000001 cycles: 2075308603 heartbeat IPC: 0.533651 cumulative IPC: 0.533293 (Simulation time: 3 hr 16 min 54 sec) 
Heartbeat CPU 0 instructions: 1550000000 cycles: 2094075964 heartbeat IPC: 0.53284 cumulative IPC: 0.533289 (Simulation time: 3 hr 18 min 6 sec) 
Heartbeat CPU 0 instructions: 1560000003 cycles: 2112850353 heartbeat IPC: 0.532641 cumulative IPC: 0.533283 (Simulation time: 3 hr 19 min 18 sec) 
Heartbeat CPU 0 instructions: 1570000000 cycles: 2131651949 heartbeat IPC: 0.53187 cumulative IPC: 0.53327 (Simulation time: 3 hr 20 min 31 sec) 
Heartbeat CPU 0 instructions: 1580000000 cycles: 2150785113 heartbeat IPC: 0.522653 cumulative IPC: 0.533169 (Simulation time: 3 hr 21 min 45 sec) 
Heartbeat CPU 0 instructions: 1590000001 cycles: 2169585014 heartbeat IPC: 0.531918 cumulative IPC: 0.533158 (Simulation time: 3 hr 22 min 58 sec) 
Heartbeat CPU 0 instructions: 1600000000 cycles: 2188369510 heartbeat IPC: 0.532354 cumulative IPC: 0.533151 (Simulation time: 3 hr 24 min 12 sec) 
Heartbeat CPU 0 instructions: 1610000000 cycles: 2207024497 heartbeat IPC: 0.53605 cumulative IPC: 0.533177 (Simulation time: 3 hr 25 min 25 sec) 
Heartbeat CPU 0 instructions: 1620000000 cycles: 2225692625 heartbeat IPC: 0.535672 cumulative IPC: 0.533199 (Simulation time: 3 hr 26 min 37 sec) 
Heartbeat CPU 0 instructions: 1630000004 cycles: 2244217363 heartbeat IPC: 0.539819 cumulative IPC: 0.533257 (Simulation time: 3 hr 27 min 50 sec) 
Heartbeat CPU 0 instructions: 1640000002 cycles: 2262846189 heartbeat IPC: 0.536802 cumulative IPC: 0.533288 (Simulation time: 3 hr 29 min 2 sec) 
Heartbeat CPU 0 instructions: 1650000000 cycles: 2281761370 heartbeat IPC: 0.528676 cumulative IPC: 0.533247 (Simulation time: 3 hr 30 min 14 sec) 
Heartbeat CPU 0 instructions: 1660000000 cycles: 2300584224 heartbeat IPC: 0.531269 cumulative IPC: 0.53323 (Simulation time: 3 hr 31 min 25 sec) 
Heartbeat CPU 0 instructions: 1670000000 cycles: 2319203800 heartbeat IPC: 0.537069 cumulative IPC: 0.533262 (Simulation time: 3 hr 32 min 35 sec) 
Heartbeat CPU 0 instructions: 1680000003 cycles: 2337753927 heartbeat IPC: 0.53908 cumulative IPC: 0.533311 (Simulation time: 3 hr 33 min 47 sec) 
Heartbeat CPU 0 instructions: 1690000000 cycles: 2356335033 heartbeat IPC: 0.538181 cumulative IPC: 0.533352 (Simulation time: 3 hr 34 min 58 sec) 
Heartbeat CPU 0 instructions: 1700000001 cycles: 2374691438 heartbeat IPC: 0.544769 cumulative IPC: 0.533445 (Simulation time: 3 hr 36 min 9 sec) 
Heartbeat CPU 0 instructions: 1710000000 cycles: 2393510388 heartbeat IPC: 0.531379 cumulative IPC: 0.533428 (Simulation time: 3 hr 37 min 21 sec) 
Heartbeat CPU 0 instructions: 1720000001 cycles: 2412129663 heartbeat IPC: 0.537078 cumulative IPC: 0.533458 (Simulation time: 3 hr 38 min 32 sec) 
Heartbeat CPU 0 instructions: 1730000004 cycles: 2430782288 heartbeat IPC: 0.536118 cumulative IPC: 0.533479 (Simulation time: 3 hr 39 min 43 sec) 
Heartbeat CPU 0 instructions: 1740000004 cycles: 2449514979 heartbeat IPC: 0.533826 cumulative IPC: 0.533482 (Simulation time: 3 hr 40 min 56 sec) 
Heartbeat CPU 0 instructions: 1750000002 cycles: 2467947956 heartbeat IPC: 0.542506 cumulative IPC: 0.533553 (Simulation time: 3 hr 42 min 7 sec) 
Heartbeat CPU 0 instructions: 1760000001 cycles: 2486280605 heartbeat IPC: 0.545475 cumulative IPC: 0.533645 (Simulation time: 3 hr 43 min 17 sec) 
Heartbeat CPU 0 instructions: 1770000000 cycles: 2504779678 heartbeat IPC: 0.540568 cumulative IPC: 0.533699 (Simulation time: 3 hr 44 min 28 sec) 
Heartbeat CPU 0 instructions: 1780000001 cycles: 2523249823 heartbeat IPC: 0.541414 cumulative IPC: 0.533759 (Simulation time: 3 hr 45 min 38 sec) 
Heartbeat CPU 0 instructions: 1790000002 cycles: 2541702935 heartbeat IPC: 0.541914 cumulative IPC: 0.533821 (Simulation time: 3 hr 46 min 50 sec) 
Heartbeat CPU 0 instructions: 1800000000 cycles: 2560363104 heartbeat IPC: 0.535901 cumulative IPC: 0.533837 (Simulation time: 3 hr 48 min 1 sec) 
Heartbeat CPU 0 instructions: 1810000003 cycles: 2578979130 heartbeat IPC: 0.537172 cumulative IPC: 0.533862 (Simulation time: 3 hr 49 min 13 sec) 
Heartbeat CPU 0 instructions: 1820000001 cycles: 2597599263 heartbeat IPC: 0.537053 cumulative IPC: 0.533886 (Simulation time: 3 hr 50 min 25 sec) 
Heartbeat CPU 0 instructions: 1830000001 cycles: 2616329235 heartbeat IPC: 0.533904 cumulative IPC: 0.533886 (Simulation time: 3 hr 51 min 37 sec) 
Heartbeat CPU 0 instructions: 1840000000 cycles: 2634844728 heartbeat IPC: 0.540088 cumulative IPC: 0.533932 (Simulation time: 3 hr 52 min 50 sec) 
Heartbeat CPU 0 instructions: 1850000000 cycles: 2653484695 heartbeat IPC: 0.536482 cumulative IPC: 0.533951 (Simulation time: 3 hr 54 min 3 sec) 
Heartbeat CPU 0 instructions: 1860000000 cycles: 2672156879 heartbeat IPC: 0.535556 cumulative IPC: 0.533963 (Simulation time: 3 hr 55 min 15 sec) 
Heartbeat CPU 0 instructions: 1870000000 cycles: 2690789126 heartbeat IPC: 0.536704 cumulative IPC: 0.533983 (Simulation time: 3 hr 56 min 26 sec) 
Heartbeat CPU 0 instructions: 1880000001 cycles: 2709334407 heartbeat IPC: 0.539221 cumulative IPC: 0.53402 (Simulation time: 3 hr 57 min 37 sec) 
Heartbeat CPU 0 instructions: 1890000001 cycles: 2727662806 heartbeat IPC: 0.545601 cumulative IPC: 0.534102 (Simulation time: 3 hr 58 min 49 sec) 
Heartbeat CPU 0 instructions: 1900000002 cycles: 2746115407 heartbeat IPC: 0.541929 cumulative IPC: 0.534157 (Simulation time: 4 hr 0 min 0 sec) 
Heartbeat CPU 0 instructions: 1910000000 cycles: 2764677131 heartbeat IPC: 0.538743 cumulative IPC: 0.534189 (Simulation time: 4 hr 1 min 11 sec) 
Heartbeat CPU 0 instructions: 1920000000 cycles: 2783202912 heartbeat IPC: 0.539788 cumulative IPC: 0.534228 (Simulation time: 4 hr 2 min 21 sec) 
Heartbeat CPU 0 instructions: 1930000004 cycles: 2801848253 heartbeat IPC: 0.536327 cumulative IPC: 0.534243 (Simulation time: 4 hr 3 min 32 sec) 
Heartbeat CPU 0 instructions: 1940000000 cycles: 2820492092 heartbeat IPC: 0.53637 cumulative IPC: 0.534257 (Simulation time: 4 hr 4 min 43 sec) 
Heartbeat CPU 0 instructions: 1950000001 cycles: 2839100967 heartbeat IPC: 0.537378 cumulative IPC: 0.534279 (Simulation time: 4 hr 5 min 54 sec) 
Heartbeat CPU 0 instructions: 1960000001 cycles: 2857658896 heartbeat IPC: 0.538853 cumulative IPC: 0.53431 (Simulation time: 4 hr 7 min 4 sec) 
Heartbeat CPU 0 instructions: 1970000001 cycles: 2876008843 heartbeat IPC: 0.544961 cumulative IPC: 0.534381 (Simulation time: 4 hr 8 min 14 sec) 
Heartbeat CPU 0 instructions: 1980000002 cycles: 2894673671 heartbeat IPC: 0.535767 cumulative IPC: 0.53439 (Simulation time: 4 hr 9 min 26 sec) 
Heartbeat CPU 0 instructions: 1990000000 cycles: 2913480944 heartbeat IPC: 0.531709 cumulative IPC: 0.534372 (Simulation time: 4 hr 10 min 37 sec) 
*** Reached end of trace: traces/620.omnetpp_s-874B.champsimtrace.xz
Heartbeat CPU 0 instructions: 2000000000 cycles: 2931406152 heartbeat IPC: 0.557874 cumulative IPC: 0.534522 (Simulation time: 4 hr 11 min 47 sec) 
Finished CPU 0 instructions: 1500000001 cycles: 2806243657 cumulative IPC: 0.534522 (Simulation time: 4 hr 11 min 47 sec) 

ChampSim completed all CPUs

Region of Interest Statistics

CPU 0 cumulative IPC: 0.534522 instructions: 1500000001 cycles: 2806243657
cpu0_DTLB TOTAL     ACCESS:  375748660  HIT:  346753568  MISS:   28995092
cpu0_DTLB LOAD      ACCESS:  239057444  HIT:  213746767  MISS:   25310677
cpu0_DTLB RFO       ACCESS:  136691216  HIT:  133006801  MISS:    3684415
cpu0_DTLB PREFETCH  ACCESS:          0  HIT:          0  MISS:          0
cpu0_DTLB WRITEBACK ACCESS:          0  HIT:          0  MISS:          0
cpu0_DTLB TRANSLATION ACCESS:          0  HIT:          0  MISS:          0
cpu0_DTLB PREFETCH  REQUESTED:          0  ISSUED:          0  USEFUL:          0  USELESS:          0
cpu0_DTLB AVERAGE MISS LATENCY: 10.8809 cycles
cpu0_ITLB TOTAL     ACCESS:  145792454  HIT:  143349670  MISS:    2442784
cpu0_ITLB LOAD      ACCESS:  145792454  HIT:  143349670  MISS:    2442784
cpu0_ITLB RFO       ACCESS:          0  HIT:          0  MISS:          0
cpu0_ITLB PREFETCH  ACCESS:          0  HIT:          0  MISS:          0
cpu0_ITLB WRITEBACK ACCESS:          0  HIT:          0  MISS:          0
cpu0_ITLB TRANSLATION ACCESS:          0  HIT:          0  MISS:          0
cpu0_ITLB PREFETCH  REQUESTED:          0  ISSUED:          0  USEFUL:          0  USELESS:          0
cpu0_ITLB AVERAGE MISS LATENCY: 9.1649 cycles
cpu0_L1I TOTAL     ACCESS:  137408224  HIT:  136897000  MISS:     511224
cpu0_L1I LOAD      ACCESS:  137408224  HIT:  136897000  MISS:     511224
cpu0_L1I RFO       ACCESS:          0  HIT:          0  MISS:          0
cpu0_L1I PREFETCH  ACCESS:          0  HIT:          0  MISS:          0
cpu0_L1I WRITEBACK ACCESS:          0  HIT:          0  MISS:          0
cpu0_L1I TRANSLATION ACCESS:          0  HIT:          0  MISS:          0
cpu0_L1I PREFETCH  REQUESTED:          0  ISSUED:          0  USEFUL:          0  USELESS:          0
cpu0_L1I AVERAGE MISS LATENCY: 23.0388 cycles
cpu0_STLB TOTAL     ACCESS:   31437876  HIT:   24967994  MISS:    6469882
cpu0_STLB LOAD      ACCESS:   27753461  HIT:   22483854  MISS:    5269607
cpu0_STLB RFO       ACCESS:    3684415  HIT:    2484140  MISS:    1200275
cpu0_STLB PREFETCH  ACCESS:          0  HIT:          0  MISS:          0
cpu0_STLB WRITEBACK ACCESS:          0  HIT:          0  MISS:          0
cpu0_STLB TRANSLATION ACCESS:          0  HIT:          0  MISS:          0
cpu0_STLB PREFETCH  REQUESTED:          0  ISSUED:          0  USEFUL:          0  USELESS:          0
cpu0_STLB AVERAGE MISS LATENCY: 8.44025 cycles
cpu0_L1D TOTAL     ACCESS:  529435079  HIT:  501671047  MISS:   27764032
cpu0_L1D LOAD      ACCESS:  259014646  HIT:  234934477  MISS:   24080169
cpu0_L1D RFO       ACCESS:  264061275  HIT:  260496620  MISS:    3564655
cpu0_L1D PREFETCH  ACCESS:          0  HIT:          0  MISS:          0
cpu0_L1D WRITEBACK ACCESS:          0  HIT:          0  MISS:          0
cpu0_L1D TRANSLATION ACCESS:    6359158  HIT:    6239950  MISS:     119208
cpu0_L1D PREFETCH  REQUESTED:          0  ISSUED:          0  USEFUL:          0  USELESS:          0
cpu0_L1D AVERAGE MISS LATENCY: 111.257 cycles
cpu0_L2C TOTAL     ACCESS:   41875997  HIT:   23386211  MISS:   18489786
cpu0_L2C LOAD      ACCESS:   24591042  HIT:    8478450  MISS:   16112592
cpu0_L2C RFO       ACCESS:    3564604  HIT:    1211780  MISS:    2352824
cpu0_L2C PREFETCH  ACCESS:          0  HIT:          0  MISS:          0
cpu0_L2C WRITEBACK ACCESS:   13601143  HIT:   13586282  MISS:      14861
cpu0_L2C TRANSLATION ACCESS:     119208  HIT:     109699  MISS:       9509
cpu0_L2C PREFETCH  REQUESTED:          0  ISSUED:          0  USEFUL:          0  USELESS:          0
cpu0_L2C AVERAGE MISS LATENCY: 150.74 cycles
LLC TOTAL     ACCESS:   27605967  HIT:   13728701  MISS:   13877266
LLC LOAD      ACCESS:   16112562  HIT:    3594916  MISS:   12517646
LLC RFO       ACCESS:    2352820  HIT:    1032580  MISS:    1320240
LLC PREFETCH  ACCESS:          0  HIT:          0  MISS:          0
LLC WRITEBACK ACCESS:    9131076  HIT:    9093877  MISS:      37199
LLC TRANSLATION ACCESS:       9509  HIT:       7328  MISS:       2181
LLC PREFETCH  REQUESTED:          0  ISSUED:          0  USEFUL:          0  USELESS:          0
LLC AVERAGE MISS LATENCY: 172.885 cycles
~~~~~~~~~~Reuse Distance Profiler output~~~~~~~~~~
0	162576960	9981680
1	39270400	12097216
2	27824096	11981088
3	21165376	10700848
4	22170656	11953520
5	18885040	9634832
6	15951280	8146368
7	15717904	8552304
8	13343552	6888784
9	13402672	7621440
10	10083264	5098400
11	10423600	5677824
12	7973184	4060352
13	7151600	3633440
14	7425728	4018992
15	7269312	3812944
16	5632784	2787248
17	4907168	2462064
18	4911296	2471616
19	4537120	2418848
20	3804384	1949808
21	3854624	1789968
22	3694768	1828896
23	3414560	1748240
24	3207136	1595072
25	3041824	1579616
26	2797264	1522016
27	2731952	1581008
28	2748752	1610640
29	2437536	1430464
30	2393536	1557584
31	2351392	1510368
32	2191136	1349744
33	2144848	1060256
34	2137792	1112832
35	1978208	1049008
36	1842048	918928
37	1950720	1130848
38	1691968	903296
39	1733056	1004640
40	1550448	886512
41	1584064	872512
42	1685216	892624
43	1550848	753392
44	1567584	759232
45	1539760	689408
46	1399840	636944
47	1431936	692016
48	1267760	604608
49	1259680	588928
50	1159616	629952
51	955104	499408
52	941072	526752
53	909072	530800
54	1010960	622592
55	911248	486944
56	938560	506192
57	991552	566976
58	970128	606704
59	990400	640272
60	1003440	647728
61	989120	624656
62	933008	617600
63	919472	605568
64	1904320	1249024
66	1676128	1030592
68	1632592	1083216
70	1503232	946368
72	1507856	905024
74	1318512	841888
76	1318848	872096
78	1203648	704992
80	1371248	888896
82	1180032	663584
84	1216528	736336
86	900352	536832
88	894896	601392
90	903792	599584
92	987632	672816
94	940704	649104
96	807072	544464
98	833984	587504
100	837360	572736
102	830960	520640
104	907520	540816
106	868960	510832
108	803456	472464
110	797168	472480
112	928032	638096
114	844752	599920
116	895584	667184
118	701600	513184
120	590576	440176
122	515872	387232
124	510400	394624
126	493488	404304
128	808336	662304
132	719312	615728
136	895872	800368
140	890768	796256
144	747520	676528
148	751792	680816
152	692352	615008
156	680080	596688
160	720640	612448
164	747760	596064
168	775856	568352
172	685760	503856
176	608896	441680
180	665040	538592
184	675040	594272
188	652592	574016
192	672192	574272
196	621072	469040
200	571088	377552
204	553264	382144
208	598224	433248
212	661248	515104
216	758816	632992
220	805632	685760
224	816464	703536
228	870656	762720
232	823568	718416
236	779152	682112
240	724960	641568
244	658240	583824
248	691168	618880
252	761456	683344
256	1309568	1226768
264	1219392	1164752
272	1255264	1176384
280	1174256	1000208
288	1228528	1042416
296	1135840	1049856
304	1125504	1054864
312	1036880	942624
320	1016928	888192
328	975216	792752
336	1071344	832048
344	1159696	829520
352	1107216	778608
360	1003152	703872
368	1054288	725312
376	876336	609872
384	786720	575616
392	824768	622880
400	914656	699280
408	1020656	819872
416	1114176	946176
424	1180688	1000016
432	1381200	1139664
440	1446000	1194304
448	1523984	1306240
456	1392176	1209632
464	1222448	1038688
472	1201584	1006720
480	1128304	897584
488	1017248	778672
496	910256	725040
504	851856	721504
512	1647376	1504240
528	2090000	1945888
544	2660880	2471808
560	2866672	2667840
576	2433936	2269600
592	2352176	2171088
608	3223776	2951696
624	4542432	4243024
640	5680992	5414848
656	6148928	5886384
672	4439232	4198240
688	3654416	3364464
704	3160112	2904608
720	2382096	2196128
736	1521104	1411632
752	862560	778496
768	675904	572960
784	728416	594688
800	963584	803408
816	1242752	1071136
832	1500256	1329008
848	1467472	1310592
864	1141744	997936
880	735968	632992
896	391552	333920
912	212784	187232
928	117952	107584
944	72752	66976
960	57056	51856
976	53648	47072
992	55104	44944
1008	56544	44080
1024	101280	78592
1056	78976	69232
1088	83232	75328
1120	101040	92576
1152	94848	88496
1184	100272	92048
1216	149584	141008
1248	301984	288416
1280	457536	433968
1312	345328	327424
1344	197104	184256
1376	177392	163568
1408	156432	142320
1440	122256	112656
1472	91440	84864
1504	72960	65808
1536	65984	57120
1568	56672	50128
1600	78368	72368
1632	117008	111120
1664	150032	141968
1696	138720	132400
1728	98928	93280
1760	65648	60368
1792	47952	44272
1824	43152	40192
1856	58352	54656
1888	104784	100336
1920	187488	181712
1952	233280	224768
1984	166096	158240
2016	90688	85376
2048	139392	130032
2112	109792	103072
2176	96032	90448
2240	72016	67056
2304	92400	84176
2368	110784	102304
2432	97760	90432
2496	161424	154096
2560	296176	283888
2624	258320	246464
2688	119648	112464
2752	106560	99664
2816	109824	103216
2880	78944	74416
2944	65808	61984
3008	74576	70656
3072	78960	73776
3136	89552	85024
3200	147440	141680
3264	213296	206048
3328	146304	139920
3392	111936	105904
3456	84992	80896
3520	71632	67056
3584	53744	50880
3648	57664	54112
3712	65488	61808
3776	55248	52928
3840	82480	79296
3904	133376	128768
3968	112368	107616
4032	97312	92416
4096	154192	144816
4224	119920	107440
4352	104880	95696
4480	185200	174848
4608	189008	180160
4736	104784	98416
4864	80512	73840
4992	94496	85152
5120	119792	111696
5248	130768	123680
5376	85216	78624
5504	80752	74032
5632	70080	63408
5760	92112	85536
5888	149728	140208
6016	112736	104080
6144	102576	92928
6272	94208	87168
6400	103344	95536
6528	142304	135552
6656	112112	104304
6784	110896	103616
6912	145696	135184
7040	146880	135040
7168	159344	149056
7296	147056	138960
7424	105488	99616
7552	101568	96240
7680	107024	101744
7808	128240	122208
7936	133760	127584
8064	102544	96272
8192	187616	176496
8448	251952	237184
8704	210224	197680
8960	218288	202784
9216	240336	223328
9472	201776	187840
9728	190528	177232
9984	148144	137088
10240	119760	112224
10496	130592	122512
10752	110192	103472
11008	110240	103472
11264	93136	87312
11520	86128	80816
11776	99744	93088
12032	74512	69200
12288	70000	65488
12544	72448	66896
12800	69360	62720
13056	72576	67136
13312	61424	55760
13568	63728	58784
13824	72640	67360
14080	66384	61296
14336	69568	65136
14592	67008	63872
14848	68224	64144
15104	72896	68944
15360	70608	66848
15616	71952	67936
15872	71984	67984
16128	68688	63360
16384	142352	130128
16896	149760	139680
17408	151936	141600
17920	142112	132848
18432	135520	127376
18944	126512	118704
19456	119744	112336
19968	109792	100928
20480	103632	94896
20992	92096	84688
21504	87248	80160
22016	103280	93216
22528	144544	125312
23040	133616	111104
23552	113216	96496
24064	91824	79392
24576	83552	73568
25088	78624	70096
25600	80224	71984
26112	91120	81168
26624	89552	79728
27136	87248	75888
27648	76336	67872
28160	66992	60448
28672	62800	56176
29184	61424	55840
29696	60704	54496
30208	61744	55520
30720	60240	53936
31232	60400	54096
31744	57728	51648
32256	58560	52336
32768	116432	102480
33792	107904	96000
34816	98608	89264
35840	96064	86656
36864	94320	84944
37888	93616	83632
38912	83872	75664
39936	85360	77136
40960	80544	72240
41984	78800	71680
43008	76480	69536
44032	77072	69136
45056	77840	69248
46080	72128	64688
47104	68336	61344
48128	66704	60224
49152	66144	59120
50176	66688	60496
51200	62304	56160
52224	60720	54768
53248	58608	53360
54272	59312	53072
55296	58544	52832
56320	55104	49728
57344	52816	47664
58368	54224	49024
59392	54144	48864
60416	51504	46272
61440	49056	44176
62464	49168	44528
63488	47712	42960
64512	47968	43120
65536	94272	84128
67584	97152	86064
69632	95824	84768
71680	93328	82944
73728	93216	81408
75776	92624	81344
77824	92448	81136
79872	92064	80576
81920	90720	79392
83968	90096	78592
86016	89744	78224
88064	90608	78208
90112	94016	81952
92160	91632	78688
94208	85840	72688
96256	87424	74704
98304	88928	75424
100352	88896	74624
102400	86704	72320
104448	86560	71888
106496	94096	77776
108544	94272	78064
110592	94800	77280
112640	91200	74592
114688	88672	72960
116736	93408	75824
118784	100832	82560
120832	101216	83136
122880	97248	78848
124928	95264	77168
126976	98368	79536
129024	98848	80720
131072	191648	151488
135168	189968	148240
139264	187648	145952
143360	187280	145328
147456	187632	145360
151552	188912	145536
155648	180240	136880
159744	169296	129424
163840	172192	130528
167936	173392	131152
172032	165664	124528
176128	165200	123936
180224	158288	119488
184320	158320	120320
188416	145296	109664
192512	143808	108016
196608	140896	105280
200704	137136	101520
204800	128608	95760
208896	124224	93952
212992	115776	87296
217088	117936	88144
221184	108464	83456
225280	102752	78416
229376	100272	76096
233472	88416	67200
237568	88816	67456
241664	82704	62672
245760	84016	63776
249856	77104	57600
253952	74704	56592
258048	67840	51808
262144	129344	98592
270336	115584	88736
278528	108896	84432
286720	99264	77824
294912	91488	70224
303104	83248	65488
311296	87424	69152
319488	73584	58736
327680	69936	55536
335872	67552	53840
344064	65840	51840
352256	60288	47888
360448	57424	47024
368640	57680	45488
376832	56896	45328
385024	54352	43680
393216	51520	40704
401408	51008	40320
409600	49920	39920
417792	47664	38128
425984	48240	39104
434176	46160	37024
442368	44624	35744
450560	44224	35184
458752	45536	36528
466944	43088	34176
475136	43168	34064
483328	39056	31088
491520	39920	31168
499712	39408	31328
507904	39264	30832
516096	38992	30544
524288	74592	58816
540672	74144	58016
557056	75856	57968
573440	77632	59056
589824	74656	56496
606208	69424	51472
622592	68704	51744
638976	62432	47712
655360	59360	45360
671744	59376	43520
688128	57072	43712
704512	58624	44928
720896	61072	46976
737280	56432	43728
753664	51664	39008
770048	54400	43264
786432	54592	41920
802816	54320	40640
819200	58864	44000
835584	55568	40096
851968	57232	40320
868352	63056	45104
884736	60128	42224
901120	62976	44016
917504	58096	40096
933888	61104	42784
950272	59008	42512
966656	52288	38656
983040	47792	35552
999424	50064	38656
1015808	48736	37968
1032192	45344	36048
1048576	95488	74560
1081344	84848	67968
1114112	82048	68336
1146880	81024	67600
1179648	73680	63968
1212416	70208	61024
1245184	67792	59200
1277952	67840	58240
1310720	67600	57344
1343488	67984	58224
1376256	63200	53984
1409024	63472	53632
1441792	68256	59008
1474560	62912	55104
1507328	56480	49920
1540096	55088	48128
1572864	51248	45184
1605632	56064	49200
1638400	53376	46592
1671168	50592	43552
1703936	48640	41952
1736704	43712	37504
1769472	39904	35936
1802240	37520	34224
1835008	36272	33232
1867776	34816	31840
1900544	33488	30944
1933312	29808	27152
1966080	31728	29024
1998848	33280	29968
2031616	30976	27760
2064384	30224	27616
2097152	57120	52384
2162688	63088	57856
2228224	55040	50176
2293760	51136	46896
2359296	56688	52272
2424832	52064	46832
2490368	52880	47776
2555904	47776	43648
2621440	48688	43632
2686976	55328	50384
2752512	56848	51104
2818048	51760	47568
2883584	52496	48208
2949120	47728	43168
3014656	45968	42032
3080192	47168	42896
3145728	51904	47632
3211264	43952	40048
3276800	48032	43952
3342336	48496	44320
3407872	44032	39792
3473408	48960	44608
3538944	52752	48128
3604480	48160	44160
3670016	51680	47008
3735552	49920	45680
3801088	47344	42304
3866624	51632	47216
3932160	48208	43760
3997696	43728	39728
4063232	42784	38800
4128768	42880	38912
4194304	81504	74112
4325376	80160	73072
4456448	75808	68672
4587520	83296	75264
4718592	73984	66928
4849664	70672	63920
4980736	65376	59952
5111808	57216	51920
5242880	63744	57776
5373952	66096	59840
5505024	64320	58016
5636096	60720	55216
5767168	63856	58560
5898240	59392	53120
6029312	54224	49472
6160384	54576	49312
6291456	54112	48400
6422528	49712	45216
6553600	45440	41424
6684672	42480	37840
6815744	42048	36912
6946816	36064	32064
7077888	28528	25104
7208960	26736	24016
7340032	24112	21376
7471104	21776	19056
7602176	21472	19024
7733248	21584	19184
7864320	19728	17392
7995392	20432	17776
8126464	18464	16112
8257536	16368	14224
8388608	33344	29312
8650752	32832	27808
8912896	29488	26080
9175040	29152	25360
9437184	28448	24784
9699328	28752	24880
9961472	24816	21792
10223616	22960	20240
10485760	24272	21440
10747904	23056	20128
11010048	23600	21056
11272192	22832	20336
11534336	22448	19600
11796480	22912	20272
12058624	25296	22352
12320768	30816	27504
12582912	37232	33616
12845056	50592	45696
13107200	68976	62080
13369344	88240	78464
13631488	110736	100640
13893632	100336	92016
14155776	105008	95104
14417920	94400	86064
14680064	95424	86576
14942208	91920	84880
15204352	85648	78096
15466496	100144	90864
15728640	87648	80112
15990784	93008	86128
16252928	92304	84416
16515072	85888	78720
16777216	192832	176608
17301504	240096	218256
17825792	299456	271472
18350080	1654064	1507104
18874368	2997632	2796448
19398656	2128528	1947056
19922944	1446592	1305312
20447232	1127584	1037312
20971520	543216	500240
21495808	76064	70656
22020096	4688	4432
22544384	8880	8336
23068672	5984	5888
23592960	2112	1856
24117248	4784	4224
24641536	1424	1232
25165824	1024	848
25690112	1888	1552
26214400	2336	2064
26738688	2896	2560
27262976	8304	7824
27787264	13184	12624
28311552	3008	2832
28835840	7040	6576
29360128	5440	5232
29884416	992	928
30408704	832	784
30932992	688	560
31457280	1904	1776
31981568	1856	1696
32505856	5712	5504
33030144	3552	3536
33554432	6624	6240
34603008	3696	3616
35651584	2592	2352
36700160	3616	3424
37748736	6960	6048
38797312	14992	13520
39845888	8400	8160
40894464	2416	2240
41943040	2000	1952
42991616	1728	1648
44040192	1200	1136
45088768	1408	1344
46137344	960	848
47185920	800	704
48234496	848	752
49283072	688	656
50331648	528	496
51380224	736	688
52428800	1360	1280
53477376	896	848
54525952	4384	4032
55574528	1280	1264
56623104	5792	5648
57671680	2560	2368
58720256	1328	1328
59768832	1536	1456
60817408	1296	1248
61865984	1472	1264
62914560	784	752
63963136	1216	992
65011712	848	720
66060288	832	752
67108864	1440	1328
69206016	1456	1280
71303168	2128	1920
73400320	1584	1504
75497472	1616	1552
77594624	2256	2016
79691776	1392	1344
81788928	1840	1680
83886080	1632	1520
85983232	784	784
88080384	864	816
90177536	1008	960
92274688	912	832
94371840	1664	1520
96468992	3200	3056
98566144	960	880
100663296	656	640
102760448	656	640
104857600	544	528
106954752	528	464
109051904	544	528
111149056	752	672
113246208	656	512
115343360	512	480
117440512	688	640
119537664	800	752
121634816	512	512
123731968	416	384
125829120	512	512
127926272	528	464
130023424	528	400
132120576	3648	2384
134217728	1328	1216
138412032	992	832
142606336	752	608
146800640	2448	1984
150994944	5696	5552
155189248	528	448
159383552	544	496
163577856	336	320
167772160	448	400
171966464	320	272
176160768	224	208
180355072	272	272
184549376	528	480
188743680	240	208
192937984	240	160
197132288	208	176
201326592	144	128
205520896	272	208
209715200	144	112
213909504	272	240
218103808	480	432
222298112	192	112
226492416	304	224
230686720	176	160
234881024	336	240
239075328	128	80
243269632	240	160
247463936	288	288
251658240	176	176
255852544	192	176
260046848	144	112
264241152	192	128
268435456	304	272
276824064	144	112
285212672	160	160
293601280	192	144
301989888	176	176
310378496	288	240
318767104	160	144
327155712	192	176
335544320	160	112
343932928	160	128
352321536	112	80
360710144	192	192
369098752	240	240
377487360	128	128
385875968	48	48
394264576	64	64
402653184	32	16
411041792	64	48
419430400	32	16
427819008	112	96
436207616	80	48
444596224	64	48
452984832	96	96
461373440	144	128
469762048	64	32
478150656	32	16
486539264	16	16
494927872	128	128
503316480	80	64
511705088	48	32
520093696	80	80
528482304	32	32
536870912	64	64
553648128	80	80
570425344	80	80
587202560	112	112
603979776	80	80
620756992	160	160
637534208	16	0
654311424	32	16
671088640	48	48
687865856	16	16
704643072	0	0
721420288	0	0
738197504	0	0
754974720	0	0
771751936	0	0
788529152	0	0
805306368	0	0
822083584	0	0
838860800	0	0
855638016	0	0
872415232	0	0
889192448	0	0
905969664	0	0
922746880	0	0
939524096	0	0
956301312	0	0
973078528	0	0
989855744	0	0
1006632960	0	0
1023410176	0	0
1040187392	0	0
1056964608	0	0
1073741824	0	0
1107296256	0	0
1140850688	0	0
1174405120	0	0
1207959552	0	0
1241513984	0	0
1275068416	0	0
1308622848	0	0
1342177280	0	0
1375731712	0	0
1409286144	0	0
1442840576	0	0
1476395008	0	0
1509949440	0	0
1543503872	0	0
1577058304	0	0
1610612736	0	0
1644167168	0	0
1677721600	0	0
1711276032	0	0
1744830464	0	0
1778384896	0	0
1811939328	0	0
1845493760	0	0
1879048192	0	0
1912602624	0	0
1946157056	0	0
1979711488	0	0
2013265920	0	0
2046820352	0	0
2080374784	0	0
2113929216	0	0
2147483648	0	0
2214592512	0	0
2281701376	0	0
2348810240	0	0
2415919104	0	0
2483027968	0	0
2550136832	0	0
2617245696	0	0
2684354560	0	0
2751463424	0	0
2818572288	0	0
2885681152	0	0
2952790016	0	0
3019898880	0	0
3087007744	0	0
3154116608	0	0
3221225472	0	0
3288334336	0	0
3355443200	0	0
3422552064	0	0
3489660928	0	0
3556769792	0	0
3623878656	0	0
3690987520	0	0
3758096384	0	0
3825205248	0	0
3892314112	0	0
3959422976	0	0
4026531840	0	0
4093640704	0	0
4160749568	0	0
4227858432	0	0
~~~~~~~~~~Reuse Distance Profiler output end~~~~~~~~~~

DRAM Statistics
 CHANNEL 0
 RQ ROW_BUFFER_HIT:     476116  ROW_BUFFER_MISS:   13363301
 DBUS AVG_CONGESTED_CYCLE:    3.92676
 WQ ROW_BUFFER_HIT:    1962810  ROW_BUFFER_MISS:    4592363  FULL:          0


CPU 0 Branch Prediction Accuracy: 95.4708% MPKI: 9.41314 Average ROB Occupancy at Mispredict: 70.8979
Branch type MPKI
BRANCH_DIRECT_JUMP: 1.33333e-05
BRANCH_INDIRECT: 0.123379
BRANCH_CONDITIONAL: 8.7389
BRANCH_DIRECT_CALL: 4.66667e-06
BRANCH_INDIRECT_CALL: 0.156501
BRANCH_RETURN: 0.394343

