
*** ChampSim Multicore Out-of-Order Simulator ***

Warmup Instructions: 500000000
Simulation Instructions: 1500000000
Number of CPUs: 1
Off-chip DRAM Size: 4 GiB Channels: 1 Width: 64-bit Data Rate: 3200 MT/s

VirtualMemory physical capacity: 8588881920 num_ppages: 2096895
VirtualMemory page size: 4096 log2_page_size: 12

CPU 0 runs traces/621.wrf_s-8100B.champsimtrace.xz
CPU 0 Bimodal branch predictor
Basic BTB sets: 1024 ways: 8 indirect buffer size: 4096 RAS size: 64
Initializing LRU.
Initializing LRU.
Initializing LRU.
Initializing LRU.
Initializing rdLRU.
Initializing LRU.
Initializing LRU.
Heartbeat CPU 0 instructions: 10000001 cycles: 2601809 heartbeat IPC: 3.84348 cumulative IPC: 3.84348 (Simulation time: 0 hr 0 min 35 sec) 
Heartbeat CPU 0 instructions: 20000001 cycles: 5207351 heartbeat IPC: 3.83797 cumulative IPC: 3.84072 (Simulation time: 0 hr 1 min 9 sec) 
Heartbeat CPU 0 instructions: 30000003 cycles: 7816594 heartbeat IPC: 3.83253 cumulative IPC: 3.83799 (Simulation time: 0 hr 1 min 43 sec) 
Heartbeat CPU 0 instructions: 40000003 cycles: 10409356 heartbeat IPC: 3.85689 cumulative IPC: 3.8427 (Simulation time: 0 hr 2 min 16 sec) 
Heartbeat CPU 0 instructions: 50000003 cycles: 13013073 heartbeat IPC: 3.84066 cumulative IPC: 3.84229 (Simulation time: 0 hr 2 min 50 sec) 
Heartbeat CPU 0 instructions: 60000000 cycles: 15598519 heartbeat IPC: 3.8678 cumulative IPC: 3.84652 (Simulation time: 0 hr 3 min 22 sec) 
Heartbeat CPU 0 instructions: 70000000 cycles: 18191959 heartbeat IPC: 3.85588 cumulative IPC: 3.84785 (Simulation time: 0 hr 3 min 56 sec) 
Heartbeat CPU 0 instructions: 80000001 cycles: 20779488 heartbeat IPC: 3.86469 cumulative IPC: 3.84995 (Simulation time: 0 hr 4 min 30 sec) 
Heartbeat CPU 0 instructions: 90000000 cycles: 23372986 heartbeat IPC: 3.8558 cumulative IPC: 3.8506 (Simulation time: 0 hr 5 min 3 sec) 
Heartbeat CPU 0 instructions: 100000001 cycles: 25965579 heartbeat IPC: 3.85714 cumulative IPC: 3.85125 (Simulation time: 0 hr 5 min 40 sec) 
Heartbeat CPU 0 instructions: 110000000 cycles: 28553567 heartbeat IPC: 3.86401 cumulative IPC: 3.85241 (Simulation time: 0 hr 6 min 13 sec) 
Heartbeat CPU 0 instructions: 120000001 cycles: 31134457 heartbeat IPC: 3.87463 cumulative IPC: 3.85425 (Simulation time: 0 hr 6 min 47 sec) 
Heartbeat CPU 0 instructions: 130000003 cycles: 33730834 heartbeat IPC: 3.85152 cumulative IPC: 3.85404 (Simulation time: 0 hr 7 min 22 sec) 
Heartbeat CPU 0 instructions: 140000001 cycles: 36307447 heartbeat IPC: 3.88106 cumulative IPC: 3.85596 (Simulation time: 0 hr 8 min 6 sec) 
Heartbeat CPU 0 instructions: 150000002 cycles: 38882726 heartbeat IPC: 3.88307 cumulative IPC: 3.85775 (Simulation time: 0 hr 8 min 39 sec) 
Heartbeat CPU 0 instructions: 160000002 cycles: 41460336 heartbeat IPC: 3.87956 cumulative IPC: 3.85911 (Simulation time: 0 hr 9 min 15 sec) 
Heartbeat CPU 0 instructions: 170000002 cycles: 44038340 heartbeat IPC: 3.87897 cumulative IPC: 3.86027 (Simulation time: 0 hr 10 min 11 sec) 
Heartbeat CPU 0 instructions: 180000000 cycles: 46624820 heartbeat IPC: 3.86626 cumulative IPC: 3.8606 (Simulation time: 0 hr 11 min 10 sec) 
Heartbeat CPU 0 instructions: 190000003 cycles: 49199766 heartbeat IPC: 3.88358 cumulative IPC: 3.86181 (Simulation time: 0 hr 11 min 44 sec) 
Heartbeat CPU 0 instructions: 200000002 cycles: 51781939 heartbeat IPC: 3.87271 cumulative IPC: 3.86235 (Simulation time: 0 hr 12 min 19 sec) 
Heartbeat CPU 0 instructions: 210000001 cycles: 54356946 heartbeat IPC: 3.88348 cumulative IPC: 3.86335 (Simulation time: 0 hr 13 min 1 sec) 
Heartbeat CPU 0 instructions: 220000003 cycles: 56937686 heartbeat IPC: 3.87486 cumulative IPC: 3.86387 (Simulation time: 0 hr 13 min 34 sec) 
Heartbeat CPU 0 instructions: 230000000 cycles: 59524544 heartbeat IPC: 3.86569 cumulative IPC: 3.86395 (Simulation time: 0 hr 14 min 8 sec) 
Heartbeat CPU 0 instructions: 240000002 cycles: 62115013 heartbeat IPC: 3.86031 cumulative IPC: 3.8638 (Simulation time: 0 hr 14 min 41 sec) 
Heartbeat CPU 0 instructions: 250000001 cycles: 64702409 heartbeat IPC: 3.86489 cumulative IPC: 3.86384 (Simulation time: 0 hr 15 min 15 sec) 
Heartbeat CPU 0 instructions: 260000001 cycles: 67300722 heartbeat IPC: 3.84865 cumulative IPC: 3.86326 (Simulation time: 0 hr 15 min 49 sec) 
Heartbeat CPU 0 instructions: 270000000 cycles: 69895118 heartbeat IPC: 3.85446 cumulative IPC: 3.86293 (Simulation time: 0 hr 16 min 23 sec) 
Heartbeat CPU 0 instructions: 280000001 cycles: 72507123 heartbeat IPC: 3.82848 cumulative IPC: 3.86169 (Simulation time: 0 hr 17 min 19 sec) 
Heartbeat CPU 0 instructions: 290000001 cycles: 75106143 heartbeat IPC: 3.8476 cumulative IPC: 3.8612 (Simulation time: 0 hr 18 min 20 sec) 
Heartbeat CPU 0 instructions: 300000003 cycles: 77712890 heartbeat IPC: 3.8362 cumulative IPC: 3.86036 (Simulation time: 0 hr 19 min 21 sec) 
Heartbeat CPU 0 instructions: 310000003 cycles: 80311405 heartbeat IPC: 3.84835 cumulative IPC: 3.85997 (Simulation time: 0 hr 20 min 22 sec) 
Heartbeat CPU 0 instructions: 320000000 cycles: 82911523 heartbeat IPC: 3.84598 cumulative IPC: 3.85954 (Simulation time: 0 hr 21 min 23 sec) 
Heartbeat CPU 0 instructions: 330000002 cycles: 85513266 heartbeat IPC: 3.84358 cumulative IPC: 3.85905 (Simulation time: 0 hr 22 min 16 sec) 
Heartbeat CPU 0 instructions: 340000000 cycles: 88118081 heartbeat IPC: 3.83904 cumulative IPC: 3.85846 (Simulation time: 0 hr 22 min 50 sec) 
Heartbeat CPU 0 instructions: 350000002 cycles: 90727549 heartbeat IPC: 3.8322 cumulative IPC: 3.8577 (Simulation time: 0 hr 23 min 40 sec) 
Heartbeat CPU 0 instructions: 360000004 cycles: 93332296 heartbeat IPC: 3.83915 cumulative IPC: 3.85719 (Simulation time: 0 hr 24 min 41 sec) 
Heartbeat CPU 0 instructions: 370000003 cycles: 95953615 heartbeat IPC: 3.81487 cumulative IPC: 3.85603 (Simulation time: 0 hr 25 min 42 sec) 
Heartbeat CPU 0 instructions: 380000003 cycles: 98540735 heartbeat IPC: 3.8653 cumulative IPC: 3.85627 (Simulation time: 0 hr 26 min 40 sec) 
Heartbeat CPU 0 instructions: 390000000 cycles: 101124112 heartbeat IPC: 3.8709 cumulative IPC: 3.85665 (Simulation time: 0 hr 27 min 12 sec) 
Heartbeat CPU 0 instructions: 400000000 cycles: 103683011 heartbeat IPC: 3.90793 cumulative IPC: 3.85791 (Simulation time: 0 hr 27 min 39 sec) 
Heartbeat CPU 0 instructions: 410000001 cycles: 106242600 heartbeat IPC: 3.90688 cumulative IPC: 3.85909 (Simulation time: 0 hr 27 min 57 sec) 
Heartbeat CPU 0 instructions: 420000003 cycles: 108866809 heartbeat IPC: 3.81067 cumulative IPC: 3.85793 (Simulation time: 0 hr 28 min 25 sec) 
Heartbeat CPU 0 instructions: 430000001 cycles: 111430739 heartbeat IPC: 3.90026 cumulative IPC: 3.8589 (Simulation time: 0 hr 28 min 58 sec) 
Heartbeat CPU 0 instructions: 440000002 cycles: 114237995 heartbeat IPC: 3.5622 cumulative IPC: 3.85161 (Simulation time: 0 hr 29 min 24 sec) 
Heartbeat CPU 0 instructions: 450000000 cycles: 116822329 heartbeat IPC: 3.86947 cumulative IPC: 3.852 (Simulation time: 0 hr 29 min 43 sec) 
Heartbeat CPU 0 instructions: 460000000 cycles: 119406723 heartbeat IPC: 3.86938 cumulative IPC: 3.85238 (Simulation time: 0 hr 30 min 2 sec) 
Heartbeat CPU 0 instructions: 470000004 cycles: 121998048 heartbeat IPC: 3.85903 cumulative IPC: 3.85252 (Simulation time: 0 hr 30 min 22 sec) 
Heartbeat CPU 0 instructions: 480000000 cycles: 124526406 heartbeat IPC: 3.95513 cumulative IPC: 3.8546 (Simulation time: 0 hr 30 min 53 sec) 
Heartbeat CPU 0 instructions: 490000000 cycles: 127069527 heartbeat IPC: 3.93218 cumulative IPC: 3.85616 (Simulation time: 0 hr 31 min 23 sec) 
Heartbeat CPU 0 instructions: 500000001 cycles: 129571720 heartbeat IPC: 3.99649 cumulative IPC: 3.85887 (Simulation time: 0 hr 31 min 52 sec) 

Warmup complete CPU 0 instructions: 500000001 cycles: 129571720 (Simulation time: 0 hr 31 min 52 sec) 

Heartbeat CPU 0 instructions: 510000000 cycles: 140060587 heartbeat IPC: 0.953392 cumulative IPC: 0.953392 (Simulation time: 0 hr 32 min 36 sec) 
Heartbeat CPU 0 instructions: 520000000 cycles: 150543877 heartbeat IPC: 0.953899 cumulative IPC: 0.953645 (Simulation time: 0 hr 33 min 21 sec) 
Heartbeat CPU 0 instructions: 530000000 cycles: 161032445 heartbeat IPC: 0.953419 cumulative IPC: 0.95357 (Simulation time: 0 hr 34 min 5 sec) 
Heartbeat CPU 0 instructions: 540000000 cycles: 171514094 heartbeat IPC: 0.954048 cumulative IPC: 0.953689 (Simulation time: 0 hr 35 min 9 sec) 
Heartbeat CPU 0 instructions: 550000001 cycles: 181975321 heartbeat IPC: 0.955911 cumulative IPC: 0.954133 (Simulation time: 0 hr 36 min 21 sec) 
Heartbeat CPU 0 instructions: 560000002 cycles: 192430559 heartbeat IPC: 0.956458 cumulative IPC: 0.95452 (Simulation time: 0 hr 37 min 20 sec) 
Heartbeat CPU 0 instructions: 570000002 cycles: 202875129 heartbeat IPC: 0.957435 cumulative IPC: 0.954935 (Simulation time: 0 hr 38 min 38 sec) 
Heartbeat CPU 0 instructions: 580000001 cycles: 213286515 heartbeat IPC: 0.960487 cumulative IPC: 0.955626 (Simulation time: 0 hr 39 min 55 sec) 
Heartbeat CPU 0 instructions: 590000000 cycles: 223661076 heartbeat IPC: 0.963896 cumulative IPC: 0.956538 (Simulation time: 0 hr 41 min 12 sec) 
Heartbeat CPU 0 instructions: 600000000 cycles: 233991554 heartbeat IPC: 0.968009 cumulative IPC: 0.957672 (Simulation time: 0 hr 42 min 35 sec) 
Heartbeat CPU 0 instructions: 610000001 cycles: 244305468 heartbeat IPC: 0.969564 cumulative IPC: 0.958741 (Simulation time: 0 hr 43 min 58 sec) 
Heartbeat CPU 0 instructions: 620000001 cycles: 254627469 heartbeat IPC: 0.968804 cumulative IPC: 0.959572 (Simulation time: 0 hr 45 min 22 sec) 
Heartbeat CPU 0 instructions: 630000000 cycles: 264973650 heartbeat IPC: 0.96654 cumulative IPC: 0.960104 (Simulation time: 0 hr 46 min 36 sec) 
Heartbeat CPU 0 instructions: 640000002 cycles: 275320616 heartbeat IPC: 0.966467 cumulative IPC: 0.960556 (Simulation time: 0 hr 47 min 24 sec) 
Heartbeat CPU 0 instructions: 650000000 cycles: 285675091 heartbeat IPC: 0.965766 cumulative IPC: 0.960902 (Simulation time: 0 hr 48 min 39 sec) 
Heartbeat CPU 0 instructions: 660000003 cycles: 296023548 heartbeat IPC: 0.966328 cumulative IPC: 0.961239 (Simulation time: 0 hr 50 min 0 sec) 
Heartbeat CPU 0 instructions: 670000001 cycles: 306376879 heartbeat IPC: 0.965873 cumulative IPC: 0.96151 (Simulation time: 0 hr 51 min 22 sec) 
Heartbeat CPU 0 instructions: 680000001 cycles: 316735284 heartbeat IPC: 0.9654 cumulative IPC: 0.961726 (Simulation time: 0 hr 52 min 45 sec) 
Heartbeat CPU 0 instructions: 690000000 cycles: 327096766 heartbeat IPC: 0.965113 cumulative IPC: 0.961903 (Simulation time: 0 hr 54 min 7 sec) 
Heartbeat CPU 0 instructions: 700000003 cycles: 337453645 heartbeat IPC: 0.965542 cumulative IPC: 0.962085 (Simulation time: 0 hr 55 min 30 sec) 
Heartbeat CPU 0 instructions: 710000000 cycles: 347810264 heartbeat IPC: 0.965566 cumulative IPC: 0.96225 (Simulation time: 0 hr 56 min 52 sec) 
Heartbeat CPU 0 instructions: 720000004 cycles: 358164276 heartbeat IPC: 0.96581 cumulative IPC: 0.962411 (Simulation time: 0 hr 58 min 15 sec) 
Heartbeat CPU 0 instructions: 730000000 cycles: 368511724 heartbeat IPC: 0.966421 cumulative IPC: 0.962585 (Simulation time: 0 hr 59 min 11 sec) 
Heartbeat CPU 0 instructions: 740000000 cycles: 378859584 heartbeat IPC: 0.966383 cumulative IPC: 0.962742 (Simulation time: 0 hr 59 min 59 sec) 
Heartbeat CPU 0 instructions: 750000000 cycles: 389206491 heartbeat IPC: 0.966472 cumulative IPC: 0.962891 (Simulation time: 1 hr 1 min 4 sec) 
Heartbeat CPU 0 instructions: 760000003 cycles: 399540720 heartbeat IPC: 0.967658 cumulative IPC: 0.963074 (Simulation time: 1 hr 2 min 14 sec) 
Heartbeat CPU 0 instructions: 770000000 cycles: 409799106 heartbeat IPC: 0.974812 cumulative IPC: 0.963503 (Simulation time: 1 hr 3 min 15 sec) 
Heartbeat CPU 0 instructions: 780000001 cycles: 420075909 heartbeat IPC: 0.973065 cumulative IPC: 0.963841 (Simulation time: 1 hr 4 min 32 sec) 
Heartbeat CPU 0 instructions: 790000002 cycles: 430343627 heartbeat IPC: 0.973926 cumulative IPC: 0.964186 (Simulation time: 1 hr 5 min 37 sec) 
Heartbeat CPU 0 instructions: 800000000 cycles: 440596649 heartbeat IPC: 0.975322 cumulative IPC: 0.964553 (Simulation time: 1 hr 6 min 36 sec) 
Heartbeat CPU 0 instructions: 810000000 cycles: 450822055 heartbeat IPC: 0.977956 cumulative IPC: 0.96498 (Simulation time: 1 hr 7 min 34 sec) 
Heartbeat CPU 0 instructions: 820000000 cycles: 461016111 heartbeat IPC: 0.980964 cumulative IPC: 0.965471 (Simulation time: 1 hr 8 min 44 sec) 
Heartbeat CPU 0 instructions: 830000000 cycles: 471269712 heartbeat IPC: 0.975267 cumulative IPC: 0.965765 (Simulation time: 1 hr 9 min 33 sec) 
Heartbeat CPU 0 instructions: 840000000 cycles: 481536678 heartbeat IPC: 0.973998 cumulative IPC: 0.966005 (Simulation time: 1 hr 10 min 19 sec) 
Heartbeat CPU 0 instructions: 850000002 cycles: 491810300 heartbeat IPC: 0.973367 cumulative IPC: 0.966214 (Simulation time: 1 hr 11 min 6 sec) 
Heartbeat CPU 0 instructions: 860000001 cycles: 502034189 heartbeat IPC: 0.978101 cumulative IPC: 0.96654 (Simulation time: 1 hr 11 min 55 sec) 
Heartbeat CPU 0 instructions: 870000000 cycles: 512289175 heartbeat IPC: 0.975135 cumulative IPC: 0.966771 (Simulation time: 1 hr 12 min 42 sec) 
Heartbeat CPU 0 instructions: 880000000 cycles: 522551769 heartbeat IPC: 0.974413 cumulative IPC: 0.96697 (Simulation time: 1 hr 13 min 45 sec) 
Heartbeat CPU 0 instructions: 890000002 cycles: 532821211 heartbeat IPC: 0.973763 cumulative IPC: 0.967143 (Simulation time: 1 hr 15 min 2 sec) 
Heartbeat CPU 0 instructions: 900000000 cycles: 543076276 heartbeat IPC: 0.975128 cumulative IPC: 0.967341 (Simulation time: 1 hr 16 min 23 sec) 
Heartbeat CPU 0 instructions: 910000003 cycles: 553342840 heartbeat IPC: 0.974036 cumulative IPC: 0.967503 (Simulation time: 1 hr 17 min 18 sec) 
Heartbeat CPU 0 instructions: 920000002 cycles: 563492709 heartbeat IPC: 0.985234 cumulative IPC: 0.967918 (Simulation time: 1 hr 18 min 3 sec) 
Heartbeat CPU 0 instructions: 930000003 cycles: 573646809 heartbeat IPC: 0.984824 cumulative IPC: 0.968305 (Simulation time: 1 hr 18 min 47 sec) 
Heartbeat CPU 0 instructions: 940000001 cycles: 583825577 heartbeat IPC: 0.982437 cumulative IPC: 0.968621 (Simulation time: 1 hr 19 min 31 sec) 
Heartbeat CPU 0 instructions: 950000003 cycles: 593961346 heartbeat IPC: 0.986605 cumulative IPC: 0.969014 (Simulation time: 1 hr 20 min 15 sec) 
Heartbeat CPU 0 instructions: 960000001 cycles: 604106224 heartbeat IPC: 0.985719 cumulative IPC: 0.969371 (Simulation time: 1 hr 21 min 2 sec) 
Heartbeat CPU 0 instructions: 970000000 cycles: 614191807 heartbeat IPC: 0.991514 cumulative IPC: 0.969832 (Simulation time: 1 hr 21 min 45 sec) 
Heartbeat CPU 0 instructions: 980000000 cycles: 624260601 heartbeat IPC: 0.993168 cumulative IPC: 0.970307 (Simulation time: 1 hr 22 min 29 sec) 
Heartbeat CPU 0 instructions: 990000000 cycles: 634356551 heartbeat IPC: 0.990496 cumulative IPC: 0.970711 (Simulation time: 1 hr 23 min 11 sec) 
Heartbeat CPU 0 instructions: 1000000000 cycles: 644559146 heartbeat IPC: 0.980143 cumulative IPC: 0.970897 (Simulation time: 1 hr 23 min 54 sec) 
Heartbeat CPU 0 instructions: 1010000002 cycles: 654738553 heartbeat IPC: 0.982376 cumulative IPC: 0.97112 (Simulation time: 1 hr 24 min 37 sec) 
Heartbeat CPU 0 instructions: 1020000002 cycles: 664899791 heartbeat IPC: 0.984132 cumulative IPC: 0.971367 (Simulation time: 1 hr 25 min 20 sec) 
Heartbeat CPU 0 instructions: 1030000000 cycles: 674997136 heartbeat IPC: 0.990359 cumulative IPC: 0.971719 (Simulation time: 1 hr 26 min 4 sec) 
Heartbeat CPU 0 instructions: 1040000002 cycles: 685099953 heartbeat IPC: 0.989823 cumulative IPC: 0.972048 (Simulation time: 1 hr 26 min 48 sec) 
Heartbeat CPU 0 instructions: 1050000000 cycles: 694223645 heartbeat IPC: 1.09605 cumulative IPC: 0.974051 (Simulation time: 1 hr 27 min 38 sec) 
Heartbeat CPU 0 instructions: 1060000001 cycles: 701686355 heartbeat IPC: 1.34 cumulative IPC: 0.978825 (Simulation time: 1 hr 28 min 25 sec) 
Heartbeat CPU 0 instructions: 1070000000 cycles: 709548721 heartbeat IPC: 1.27188 cumulative IPC: 0.982798 (Simulation time: 1 hr 29 min 12 sec) 
Heartbeat CPU 0 instructions: 1080000000 cycles: 717619731 heartbeat IPC: 1.239 cumulative IPC: 0.986314 (Simulation time: 1 hr 29 min 57 sec) 
Heartbeat CPU 0 instructions: 1090000000 cycles: 725750948 heartbeat IPC: 1.22983 cumulative IPC: 0.989635 (Simulation time: 1 hr 30 min 44 sec) 
Heartbeat CPU 0 instructions: 1100000003 cycles: 736845390 heartbeat IPC: 0.901353 cumulative IPC: 0.988022 (Simulation time: 1 hr 31 min 58 sec) 
Heartbeat CPU 0 instructions: 1110000001 cycles: 752639944 heartbeat IPC: 0.633129 cumulative IPC: 0.979026 (Simulation time: 1 hr 34 min 59 sec) 
Heartbeat CPU 0 instructions: 1120000004 cycles: 758904211 heartbeat IPC: 1.59636 cumulative IPC: 0.985171 (Simulation time: 1 hr 35 min 52 sec) 
Heartbeat CPU 0 instructions: 1130000003 cycles: 765078616 heartbeat IPC: 1.61959 cumulative IPC: 0.991335 (Simulation time: 1 hr 36 min 44 sec) 
Heartbeat CPU 0 instructions: 1140000000 cycles: 771020627 heartbeat IPC: 1.68293 cumulative IPC: 0.997741 (Simulation time: 1 hr 37 min 37 sec) 
Heartbeat CPU 0 instructions: 1150000001 cycles: 777190426 heartbeat IPC: 1.6208 cumulative IPC: 1.00368 (Simulation time: 1 hr 38 min 28 sec) 
Heartbeat CPU 0 instructions: 1160000003 cycles: 783090649 heartbeat IPC: 1.69485 cumulative IPC: 1.00992 (Simulation time: 1 hr 39 min 21 sec) 
Heartbeat CPU 0 instructions: 1170000002 cycles: 789193737 heartbeat IPC: 1.63851 cumulative IPC: 1.01573 (Simulation time: 1 hr 40 min 12 sec) 
Heartbeat CPU 0 instructions: 1180000000 cycles: 795137357 heartbeat IPC: 1.68248 cumulative IPC: 1.02169 (Simulation time: 1 hr 41 min 2 sec) 
Heartbeat CPU 0 instructions: 1190000001 cycles: 801068712 heartbeat IPC: 1.68596 cumulative IPC: 1.02755 (Simulation time: 1 hr 41 min 52 sec) 
Heartbeat CPU 0 instructions: 1200000001 cycles: 806944497 heartbeat IPC: 1.7019 cumulative IPC: 1.0334 (Simulation time: 1 hr 42 min 42 sec) 
Heartbeat CPU 0 instructions: 1210000000 cycles: 813739942 heartbeat IPC: 1.47157 cumulative IPC: 1.03776 (Simulation time: 1 hr 44 min 2 sec) 
Heartbeat CPU 0 instructions: 1220000004 cycles: 821103173 heartbeat IPC: 1.3581 cumulative IPC: 1.04117 (Simulation time: 1 hr 45 min 33 sec) 
Heartbeat CPU 0 instructions: 1230000003 cycles: 828449590 heartbeat IPC: 1.36121 cumulative IPC: 1.04453 (Simulation time: 1 hr 46 min 30 sec) 
Heartbeat CPU 0 instructions: 1240000002 cycles: 835958772 heartbeat IPC: 1.3317 cumulative IPC: 1.04758 (Simulation time: 1 hr 47 min 26 sec) 
Heartbeat CPU 0 instructions: 1250000000 cycles: 843665391 heartbeat IPC: 1.29759 cumulative IPC: 1.05028 (Simulation time: 1 hr 48 min 22 sec) 
Heartbeat CPU 0 instructions: 1260000000 cycles: 851451947 heartbeat IPC: 1.28426 cumulative IPC: 1.05281 (Simulation time: 1 hr 49 min 19 sec) 
Heartbeat CPU 0 instructions: 1270000002 cycles: 859213544 heartbeat IPC: 1.28839 cumulative IPC: 1.05531 (Simulation time: 1 hr 50 min 15 sec) 
Heartbeat CPU 0 instructions: 1280000000 cycles: 867037030 heartbeat IPC: 1.2782 cumulative IPC: 1.05768 (Simulation time: 1 hr 51 min 12 sec) 
Heartbeat CPU 0 instructions: 1290000002 cycles: 874743175 heartbeat IPC: 1.29767 cumulative IPC: 1.06016 (Simulation time: 1 hr 52 min 40 sec) 
Heartbeat CPU 0 instructions: 1300000003 cycles: 882185871 heartbeat IPC: 1.3436 cumulative IPC: 1.06296 (Simulation time: 1 hr 53 min 59 sec) 
Heartbeat CPU 0 instructions: 1310000001 cycles: 889452100 heartbeat IPC: 1.37623 cumulative IPC: 1.06596 (Simulation time: 1 hr 55 min 0 sec) 
Heartbeat CPU 0 instructions: 1320000000 cycles: 896820060 heartbeat IPC: 1.35723 cumulative IPC: 1.06875 (Simulation time: 1 hr 55 min 57 sec) 
Heartbeat CPU 0 instructions: 1330000002 cycles: 903934301 heartbeat IPC: 1.40563 cumulative IPC: 1.07185 (Simulation time: 1 hr 56 min 54 sec) 
Heartbeat CPU 0 instructions: 1340000000 cycles: 911241436 heartbeat IPC: 1.36853 cumulative IPC: 1.07462 (Simulation time: 1 hr 57 min 51 sec) 
Heartbeat CPU 0 instructions: 1350000003 cycles: 918350449 heartbeat IPC: 1.40667 cumulative IPC: 1.07762 (Simulation time: 1 hr 58 min 48 sec) 
Heartbeat CPU 0 instructions: 1360000003 cycles: 925246635 heartbeat IPC: 1.45008 cumulative IPC: 1.08084 (Simulation time: 1 hr 59 min 44 sec) 
Heartbeat CPU 0 instructions: 1370000002 cycles: 944551176 heartbeat IPC: 0.518013 cumulative IPC: 1.06751 (Simulation time: 2 hr 2 min 6 sec) 
Heartbeat CPU 0 instructions: 1380000001 cycles: 960068618 heartbeat IPC: 0.644436 cumulative IPC: 1.05961 (Simulation time: 2 hr 4 min 12 sec) 
Heartbeat CPU 0 instructions: 1390000004 cycles: 972859122 heartbeat IPC: 0.78183 cumulative IPC: 1.05539 (Simulation time: 2 hr 5 min 54 sec) 
Heartbeat CPU 0 instructions: 1400000001 cycles: 990398794 heartbeat IPC: 0.570136 cumulative IPC: 1.04551 (Simulation time: 2 hr 7 min 58 sec) 
Heartbeat CPU 0 instructions: 1410000001 cycles: 1003525423 heartbeat IPC: 0.76181 cumulative IPC: 1.04125 (Simulation time: 2 hr 9 min 31 sec) 
Heartbeat CPU 0 instructions: 1420000001 cycles: 1019636674 heartbeat IPC: 0.620684 cumulative IPC: 1.03363 (Simulation time: 2 hr 11 min 33 sec) 
Heartbeat CPU 0 instructions: 1430000003 cycles: 1039412554 heartbeat IPC: 0.505667 cumulative IPC: 1.02216 (Simulation time: 2 hr 15 min 9 sec) 
Heartbeat CPU 0 instructions: 1440000002 cycles: 1044655582 heartbeat IPC: 1.90729 cumulative IPC: 1.02723 (Simulation time: 2 hr 16 min 13 sec) 
Heartbeat CPU 0 instructions: 1450000004 cycles: 1049948561 heartbeat IPC: 1.8893 cumulative IPC: 1.03219 (Simulation time: 2 hr 17 min 54 sec) 
Heartbeat CPU 0 instructions: 1460000003 cycles: 1055075641 heartbeat IPC: 1.95043 cumulative IPC: 1.03727 (Simulation time: 2 hr 19 min 1 sec) 
Heartbeat CPU 0 instructions: 1470000002 cycles: 1060022322 heartbeat IPC: 2.02156 cumulative IPC: 1.04251 (Simulation time: 2 hr 20 min 41 sec) 
Heartbeat CPU 0 instructions: 1480000002 cycles: 1065220579 heartbeat IPC: 1.92372 cumulative IPC: 1.0474 (Simulation time: 2 hr 22 min 17 sec) 
Heartbeat CPU 0 instructions: 1490000004 cycles: 1075083597 heartbeat IPC: 1.01389 cumulative IPC: 1.04705 (Simulation time: 2 hr 23 min 46 sec) 
Heartbeat CPU 0 instructions: 1500000002 cycles: 1096226061 heartbeat IPC: 0.472982 cumulative IPC: 1.0345 (Simulation time: 2 hr 26 min 17 sec) 
Heartbeat CPU 0 instructions: 1510000000 cycles: 1109301237 heartbeat IPC: 0.764808 cumulative IPC: 1.0309 (Simulation time: 2 hr 27 min 57 sec) 
Heartbeat CPU 0 instructions: 1520000002 cycles: 1124917790 heartbeat IPC: 0.640346 cumulative IPC: 1.02477 (Simulation time: 2 hr 30 min 48 sec) 
Heartbeat CPU 0 instructions: 1530000002 cycles: 1133267112 heartbeat IPC: 1.1977 cumulative IPC: 1.02621 (Simulation time: 2 hr 32 min 10 sec) 
Heartbeat CPU 0 instructions: 1540000003 cycles: 1142895224 heartbeat IPC: 1.03863 cumulative IPC: 1.02633 (Simulation time: 2 hr 33 min 42 sec) 
Heartbeat CPU 0 instructions: 1550000000 cycles: 1158696852 heartbeat IPC: 0.632846 cumulative IPC: 1.02028 (Simulation time: 2 hr 36 min 1 sec) 
Heartbeat CPU 0 instructions: 1560000000 cycles: 1175181569 heartbeat IPC: 0.606622 cumulative IPC: 1.01376 (Simulation time: 2 hr 38 min 35 sec) 
Heartbeat CPU 0 instructions: 1570000001 cycles: 1212626321 heartbeat IPC: 0.26706 cumulative IPC: 0.987947 (Simulation time: 2 hr 43 min 3 sec) 
Heartbeat CPU 0 instructions: 1580000002 cycles: 1230691400 heartbeat IPC: 0.553554 cumulative IPC: 0.98082 (Simulation time: 2 hr 45 min 15 sec) 
Heartbeat CPU 0 instructions: 1590000004 cycles: 1244452807 heartbeat IPC: 0.72667 cumulative IPC: 0.977683 (Simulation time: 2 hr 47 min 9 sec) 
Heartbeat CPU 0 instructions: 1600000000 cycles: 1282962611 heartbeat IPC: 0.259674 cumulative IPC: 0.95371 (Simulation time: 2 hr 51 min 19 sec) 
Heartbeat CPU 0 instructions: 1610000001 cycles: 1292980037 heartbeat IPC: 0.998261 cumulative IPC: 0.954093 (Simulation time: 2 hr 52 min 45 sec) 
Heartbeat CPU 0 instructions: 1620000000 cycles: 1299011227 heartbeat IPC: 1.65805 cumulative IPC: 0.957724 (Simulation time: 2 hr 53 min 50 sec) 
Heartbeat CPU 0 instructions: 1630000000 cycles: 1308847716 heartbeat IPC: 1.01662 cumulative IPC: 0.958215 (Simulation time: 2 hr 55 min 30 sec) 
Heartbeat CPU 0 instructions: 1640000004 cycles: 1314050636 heartbeat IPC: 1.922 cumulative IPC: 0.962449 (Simulation time: 2 hr 56 min 40 sec) 
Heartbeat CPU 0 instructions: 1650000001 cycles: 1322655815 heartbeat IPC: 1.16209 cumulative IPC: 0.963888 (Simulation time: 2 hr 58 min 8 sec) 
Heartbeat CPU 0 instructions: 1660000003 cycles: 1327949855 heartbeat IPC: 1.88892 cumulative IPC: 0.967975 (Simulation time: 2 hr 59 min 7 sec) 
Heartbeat CPU 0 instructions: 1670000001 cycles: 1336628477 heartbeat IPC: 1.15226 cumulative IPC: 0.9693 (Simulation time: 3 hr 0 min 30 sec) 
Heartbeat CPU 0 instructions: 1680000000 cycles: 1341715199 heartbeat IPC: 1.9659 cumulative IPC: 0.973482 (Simulation time: 3 hr 1 min 29 sec) 
Heartbeat CPU 0 instructions: 1690000003 cycles: 1351437764 heartbeat IPC: 1.02854 cumulative IPC: 0.97392 (Simulation time: 3 hr 2 min 57 sec) 
Heartbeat CPU 0 instructions: 1700000002 cycles: 1356529134 heartbeat IPC: 1.96411 cumulative IPC: 0.978029 (Simulation time: 3 hr 3 min 56 sec) 
Heartbeat CPU 0 instructions: 1710000002 cycles: 1366073244 heartbeat IPC: 1.04777 cumulative IPC: 0.978567 (Simulation time: 3 hr 5 min 24 sec) 
Heartbeat CPU 0 instructions: 1720000000 cycles: 1374860256 heartbeat IPC: 1.13804 cumulative IPC: 0.979693 (Simulation time: 3 hr 6 min 24 sec) 
Heartbeat CPU 0 instructions: 1730000003 cycles: 1383800315 heartbeat IPC: 1.11856 cumulative IPC: 0.980682 (Simulation time: 3 hr 7 min 27 sec) 
Heartbeat CPU 0 instructions: 1740000004 cycles: 1392851863 heartbeat IPC: 1.10478 cumulative IPC: 0.981572 (Simulation time: 3 hr 8 min 33 sec) 
Heartbeat CPU 0 instructions: 1750000004 cycles: 1406477429 heartbeat IPC: 0.733914 cumulative IPC: 0.978929 (Simulation time: 3 hr 10 min 19 sec) 
Heartbeat CPU 0 instructions: 1760000001 cycles: 1425944799 heartbeat IPC: 0.51368 cumulative IPC: 0.971942 (Simulation time: 3 hr 12 min 40 sec) 
Heartbeat CPU 0 instructions: 1770000001 cycles: 1431432056 heartbeat IPC: 1.8224 cumulative IPC: 0.975527 (Simulation time: 3 hr 13 min 44 sec) 
Heartbeat CPU 0 instructions: 1780000004 cycles: 1436797132 heartbeat IPC: 1.86391 cumulative IPC: 0.979173 (Simulation time: 3 hr 14 min 51 sec) 
Heartbeat CPU 0 instructions: 1790000003 cycles: 1441949182 heartbeat IPC: 1.94097 cumulative IPC: 0.982949 (Simulation time: 3 hr 15 min 52 sec) 
Heartbeat CPU 0 instructions: 1800000003 cycles: 1446866036 heartbeat IPC: 2.03382 cumulative IPC: 0.986871 (Simulation time: 3 hr 16 min 55 sec) 
Heartbeat CPU 0 instructions: 1810000000 cycles: 1452057763 heartbeat IPC: 1.92614 cumulative IPC: 0.990559 (Simulation time: 3 hr 18 min 1 sec) 
Heartbeat CPU 0 instructions: 1820000002 cycles: 1457065164 heartbeat IPC: 1.99704 cumulative IPC: 0.994355 (Simulation time: 3 hr 18 min 58 sec) 
Heartbeat CPU 0 instructions: 1830000001 cycles: 1475445697 heartbeat IPC: 0.544054 cumulative IPC: 0.988205 (Simulation time: 3 hr 21 min 18 sec) 
Heartbeat CPU 0 instructions: 1840000004 cycles: 1492265433 heartbeat IPC: 0.59454 cumulative IPC: 0.983346 (Simulation time: 3 hr 23 min 14 sec) 
Heartbeat CPU 0 instructions: 1850000001 cycles: 1505142514 heartbeat IPC: 0.776573 cumulative IPC: 0.981411 (Simulation time: 3 hr 24 min 53 sec) 
Heartbeat CPU 0 instructions: 1860000003 cycles: 1520584538 heartbeat IPC: 0.647584 cumulative IPC: 0.977705 (Simulation time: 3 hr 26 min 48 sec) 
Heartbeat CPU 0 instructions: 1870000002 cycles: 1552884012 heartbeat IPC: 0.309603 cumulative IPC: 0.962543 (Simulation time: 3 hr 30 min 14 sec) 
Heartbeat CPU 0 instructions: 1880000000 cycles: 1571337910 heartbeat IPC: 0.541891 cumulative IPC: 0.957159 (Simulation time: 3 hr 32 min 23 sec) 
Heartbeat CPU 0 instructions: 1890000001 cycles: 1586546287 heartbeat IPC: 0.657532 cumulative IPC: 0.954032 (Simulation time: 3 hr 34 min 25 sec) 
Heartbeat CPU 0 instructions: 1900000002 cycles: 1608790878 heartbeat IPC: 0.449548 cumulative IPC: 0.946445 (Simulation time: 3 hr 37 min 6 sec) 
Heartbeat CPU 0 instructions: 1910000003 cycles: 1630371260 heartbeat IPC: 0.463384 cumulative IPC: 0.939499 (Simulation time: 3 hr 39 min 32 sec) 
Heartbeat CPU 0 instructions: 1920000003 cycles: 1644378497 heartbeat IPC: 0.713917 cumulative IPC: 0.937413 (Simulation time: 3 hr 41 min 29 sec) 
Heartbeat CPU 0 instructions: 1930000004 cycles: 1677625649 heartbeat IPC: 0.300778 cumulative IPC: 0.92374 (Simulation time: 3 hr 45 min 10 sec) 
Heartbeat CPU 0 instructions: 1940000003 cycles: 1692256019 heartbeat IPC: 0.68351 cumulative IPC: 0.921491 (Simulation time: 3 hr 47 min 9 sec) 
Heartbeat CPU 0 instructions: 1950000001 cycles: 1699991136 heartbeat IPC: 1.2928 cumulative IPC: 0.92332 (Simulation time: 3 hr 48 min 22 sec) 
Heartbeat CPU 0 instructions: 1960000003 cycles: 1706193334 heartbeat IPC: 1.61233 cumulative IPC: 0.926031 (Simulation time: 3 hr 49 min 26 sec) 
Heartbeat CPU 0 instructions: 1970000001 cycles: 1713698973 heartbeat IPC: 1.33233 cumulative IPC: 0.927956 (Simulation time: 3 hr 50 min 38 sec) 
Heartbeat CPU 0 instructions: 1980000001 cycles: 1718959940 heartbeat IPC: 1.90079 cumulative IPC: 0.931176 (Simulation time: 3 hr 51 min 36 sec) 
Heartbeat CPU 0 instructions: 1990000001 cycles: 1726509060 heartbeat IPC: 1.32466 cumulative IPC: 0.933036 (Simulation time: 3 hr 52 min 48 sec) 
*** Reached end of trace: traces/621.wrf_s-8100B.champsimtrace.xz
Heartbeat CPU 0 instructions: 2000000001 cycles: 1733807481 heartbeat IPC: 1.37016 cumulative IPC: 0.935025 (Simulation time: 3 hr 53 min 57 sec) 
Finished CPU 0 instructions: 1500000000 cycles: 1604235761 cumulative IPC: 0.935025 (Simulation time: 3 hr 53 min 57 sec) 

ChampSim completed all CPUs

Region of Interest Statistics

CPU 0 cumulative IPC: 0.935025 instructions: 1500000000 cycles: 1604235761
cpu0_DTLB TOTAL     ACCESS:  308742232  HIT:  307519542  MISS:    1222690
cpu0_DTLB LOAD      ACCESS:  262178960  HIT:  261324682  MISS:     854278
cpu0_DTLB RFO       ACCESS:   46563272  HIT:   46194860  MISS:     368412
cpu0_DTLB PREFETCH  ACCESS:          0  HIT:          0  MISS:          0
cpu0_DTLB WRITEBACK ACCESS:          0  HIT:          0  MISS:          0
cpu0_DTLB TRANSLATION ACCESS:          0  HIT:          0  MISS:          0
cpu0_DTLB PREFETCH  REQUESTED:          0  ISSUED:          0  USEFUL:          0  USELESS:          0
cpu0_DTLB AVERAGE MISS LATENCY: 19.2808 cycles
cpu0_ITLB TOTAL     ACCESS:   66140760  HIT:   66140044  MISS:        716
cpu0_ITLB LOAD      ACCESS:   66140760  HIT:   66140044  MISS:        716
cpu0_ITLB RFO       ACCESS:          0  HIT:          0  MISS:          0
cpu0_ITLB PREFETCH  ACCESS:          0  HIT:          0  MISS:          0
cpu0_ITLB WRITEBACK ACCESS:          0  HIT:          0  MISS:          0
cpu0_ITLB TRANSLATION ACCESS:          0  HIT:          0  MISS:          0
cpu0_ITLB PREFETCH  REQUESTED:          0  ISSUED:          0  USEFUL:          0  USELESS:          0
cpu0_ITLB AVERAGE MISS LATENCY: 190.214 cycles
cpu0_L1I TOTAL     ACCESS:  111486092  HIT:  110436215  MISS:    1049877
cpu0_L1I LOAD      ACCESS:  111486092  HIT:  110436215  MISS:    1049877
cpu0_L1I RFO       ACCESS:          0  HIT:          0  MISS:          0
cpu0_L1I PREFETCH  ACCESS:          0  HIT:          0  MISS:          0
cpu0_L1I WRITEBACK ACCESS:          0  HIT:          0  MISS:          0
cpu0_L1I TRANSLATION ACCESS:          0  HIT:          0  MISS:          0
cpu0_L1I PREFETCH  REQUESTED:          0  ISSUED:          0  USEFUL:          0  USELESS:          0
cpu0_L1I AVERAGE MISS LATENCY: 19.2766 cycles
cpu0_STLB TOTAL     ACCESS:    1223406  HIT:    1130039  MISS:      93367
cpu0_STLB LOAD      ACCESS:     854994  HIT:     783947  MISS:      71047
cpu0_STLB RFO       ACCESS:     368412  HIT:     346092  MISS:      22320
cpu0_STLB PREFETCH  ACCESS:          0  HIT:          0  MISS:          0
cpu0_STLB WRITEBACK ACCESS:          0  HIT:          0  MISS:          0
cpu0_STLB TRANSLATION ACCESS:          0  HIT:          0  MISS:          0
cpu0_STLB PREFETCH  REQUESTED:          0  ISSUED:          0  USEFUL:          0  USELESS:          0
cpu0_STLB AVERAGE MISS LATENCY: 133.417 cycles
cpu0_L1D TOTAL     ACCESS:  319083100  HIT:  303218095  MISS:   15865005
cpu0_L1D LOAD      ACCESS:  237910187  HIT:  226003415  MISS:   11906772
cpu0_L1D RFO       ACCESS:   81093359  HIT:   77144085  MISS:    3949274
cpu0_L1D PREFETCH  ACCESS:          0  HIT:          0  MISS:          0
cpu0_L1D WRITEBACK ACCESS:          0  HIT:          0  MISS:          0
cpu0_L1D TRANSLATION ACCESS:      79554  HIT:      70595  MISS:       8959
cpu0_L1D PREFETCH  REQUESTED:          0  ISSUED:          0  USEFUL:          0  USELESS:          0
cpu0_L1D AVERAGE MISS LATENCY: 372.756 cycles
cpu0_L2C TOTAL     ACCESS:   23555079  HIT:   13874824  MISS:    9680255
cpu0_L2C LOAD      ACCESS:   12955424  HIT:    5316194  MISS:    7639230
cpu0_L2C RFO       ACCESS:    3948931  HIT:    1915832  MISS:    2033099
cpu0_L2C PREFETCH  ACCESS:          0  HIT:          0  MISS:          0
cpu0_L2C WRITEBACK ACCESS:    6641765  HIT:    6635416  MISS:       6349
cpu0_L2C TRANSLATION ACCESS:       8959  HIT:       7382  MISS:       1577
cpu0_L2C PREFETCH  REQUESTED:          0  ISSUED:          0  USEFUL:          0  USELESS:          0
cpu0_L2C AVERAGE MISS LATENCY: 593.33 cycles
LLC TOTAL     ACCESS:   13823990  HIT:    5747020  MISS:    8076970
LLC LOAD      ACCESS:    7639221  HIT:    1366860  MISS:    6272361
LLC RFO       ACCESS:    2033058  HIT:     239193  MISS:    1793865
LLC PREFETCH  ACCESS:          0  HIT:          0  MISS:          0
LLC WRITEBACK ACCESS:    4150134  HIT:    4140109  MISS:      10025
LLC TRANSLATION ACCESS:       1577  HIT:        858  MISS:        719
LLC PREFETCH  REQUESTED:          0  ISSUED:          0  USEFUL:          0  USELESS:          0
LLC AVERAGE MISS LATENCY: 685.953 cycles
~~~~~~~~~~Reuse Distance Profiler output~~~~~~~~~~
0	53833056	18360928
1	27632896	17106304
2	21228112	14944512
3	22265200	17005936
4	19121168	14773440
5	15831824	12912704
6	13791936	11455344
7	13839120	11709120
8	11372352	9508208
9	11336896	9608672
10	10731248	9331104
11	8959840	7543216
12	8064608	6593776
13	6292800	5267440
14	5771824	4638432
15	5585248	4390448
16	4944976	3923072
17	4576080	3551312
18	4354528	3545312
19	3791952	3129824
20	3408464	2787120
21	3744960	3176752
22	3103968	2402672
23	3766032	3064816
24	5125232	4073568
25	4238480	3428832
26	3492192	2820576
27	3506256	2762496
28	3481712	2853984
29	2353008	1907328
30	2381264	1983904
31	2237888	1869600
32	3120128	2669760
33	2201936	1799200
34	2056464	1610384
35	2220928	1836448
36	1960448	1592656
37	2491616	2017664
38	1917504	1506416
39	1872144	1480496
40	3309168	2405152
41	1772704	1344944
42	1502320	1161760
43	1642672	1203376
44	1859760	1308768
45	2585360	1754608
46	2679632	1921584
47	1575296	1254096
48	1268400	1018608
49	1013952	731040
50	1133184	758704
51	1166896	681168
52	1034784	626080
53	972352	673856
54	929264	761504
55	906192	718112
56	932448	724912
57	749232	576400
58	898208	719792
59	1520944	1174080
60	1483632	1134880
61	872240	578800
62	1650432	1192192
63	677984	524192
64	1504080	1193072
66	1966336	1623056
68	2599552	2071392
70	2099536	1731968
72	1516128	1279296
74	1408576	1242544
76	1191328	1057472
78	1068384	935040
80	840656	749824
82	868272	798496
84	842528	788416
86	1708672	1642176
88	795488	710768
90	480560	420656
92	582880	516896
94	460368	408896
96	349152	308704
98	386272	336048
100	353312	310912
102	311408	279360
104	283392	253600
106	268336	239152
108	278608	242688
110	285184	247552
112	198048	168896
114	203632	162720
116	188512	164032
118	272880	237392
120	458512	302832
122	243488	172048
124	167552	136432
126	193568	159456
128	404624	343840
132	861792	414256
136	636944	430880
140	398592	340944
144	354544	307376
148	516736	443088
152	340752	267792
156	355648	242672
160	407312	206304
164	240416	203264
168	216480	183136
172	207968	175248
176	316880	237360
180	245792	204800
184	204928	169344
188	281104	243968
192	180432	157456
196	181712	158976
200	148992	132688
204	145824	130480
208	140512	123424
212	161712	140096
216	150976	127920
220	163248	140096
224	135248	108112
228	126624	104160
232	137344	126128
236	147520	135568
240	142480	134656
244	130144	118736
248	108000	96160
252	127856	99920
256	214304	170448
264	324928	255456
272	367232	226608
280	428384	315584
288	344528	198416
296	398304	183104
304	195072	146400
312	239872	176688
320	193152	142352
328	192160	133248
336	191712	141216
344	217792	183936
352	251792	206784
360	250688	211408
368	195728	153712
376	292800	262208
384	473360	445072
392	159504	141072
400	155888	139936
408	132064	116560
416	144512	130560
424	122448	109280
432	115264	103472
440	114576	105648
448	129088	116672
456	160192	145440
464	164176	152000
472	176272	169168
480	227472	219936
488	247328	243440
496	180096	174096
504	160816	154112
512	299792	280560
528	286384	265408
544	225728	218560
560	180656	170032
576	205600	190512
592	207040	192288
608	183072	173728
624	123136	118176
640	107744	98128
656	96128	83024
672	77488	70416
688	69824	63776
704	73872	69920
720	80160	76352
736	73840	67984
752	66560	57328
768	49376	40400
784	48768	39728
800	52992	40320
816	61680	49712
832	89488	71120
848	81936	66064
864	55584	37424
880	47424	35136
896	54832	47520
912	64432	57696
928	66272	60048
944	34848	29408
960	29984	21632
976	33264	19184
992	43200	24032
1008	38832	23728
1024	58768	37648
1056	58432	34912
1088	52592	41264
1120	67264	54784
1152	72992	47568
1184	64848	42080
1216	61968	45216
1248	77152	46192
1280	91808	56752
1312	78112	67600
1344	84288	72432
1376	81792	69584
1408	85056	72864
1440	81552	60272
1472	90896	60464
1504	79776	67504
1536	70912	57152
1568	195568	107792
1600	408336	363648
1632	53744	46352
1664	47872	33056
1696	47264	35424
1728	54512	39936
1760	41088	34192
1792	44992	31712
1824	46672	37104
1856	40048	30512
1888	37584	27888
1920	45168	31248
1952	62528	35744
1984	69440	52384
2016	57632	43760
2048	87200	57104
2112	74192	52256
2176	75760	54288
2240	61104	39520
2304	72528	50048
2368	85152	53296
2432	119888	74032
2496	87792	63632
2560	96400	61216
2624	234736	194736
2688	101184	80464
2752	94208	69936
2816	95216	71200
2880	112464	84944
2944	122256	95232
3008	318384	257712
3072	178448	142032
3136	98592	78688
3200	69008	51872
3264	84720	63200
3328	84624	65632
3392	101568	80048
3456	120528	96416
3520	92752	73744
3584	59024	46896
3648	60352	44448
3712	45760	34592
3776	51568	39888
3840	41488	34400
3904	39008	32208
3968	41888	35008
4032	52192	36560
4096	94320	68608
4224	121856	94256
4352	108960	87152
4480	89760	71248
4608	85376	66496
4736	86848	62448
4864	93488	68480
4992	93712	69392
5120	102480	73744
5248	103456	82096
5376	64384	45792
5504	52640	30720
5632	43920	31392
5760	43728	26960
5888	45952	32976
6016	49616	34880
6144	81712	50240
6272	51840	40368
6400	46752	33168
6528	41040	31728
6656	65024	50032
6784	71872	62128
6912	72240	53440
7040	74960	53552
7168	84224	65392
7296	90080	60896
7424	74528	52336
7552	57008	40288
7680	82144	51552
7808	161856	104048
7936	1057024	479680
8064	407248	262928
8192	112864	68976
8448	88880	53216
8704	110208	73456
8960	130528	101152
9216	58736	36208
9472	64448	40896
9728	63392	33600
9984	67824	39312
10240	58480	33824
10496	77024	51856
10752	50832	25232
11008	50240	28656
11264	43264	23648
11520	42976	22512
11776	45296	25360
12032	47600	26464
12288	51712	32304
12544	48880	32352
12800	50144	32448
13056	44896	26208
13312	39504	21824
13568	39728	22672
13824	40608	25296
14080	36384	21760
14336	61488	45856
14592	45616	29632
14848	156064	136848
15104	49744	33008
15360	34976	22720
15616	39760	28208
15872	41584	29264
16128	41008	30688
16384	99968	79472
16896	263712	244768
17408	149344	132128
17920	61152	43792
18432	134464	115648
18944	66576	50592
19456	50608	34304
19968	98624	82368
20480	61104	44768
20992	71760	47552
21504	58576	34368
22016	65248	39328
22528	60704	38976
23040	34784	22752
23552	30256	19488
24064	122448	113840
24576	429280	420864
25088	24144	17536
25600	22704	16688
26112	58192	53024
26624	177824	169984
27136	94624	86144
27648	29456	20736
28160	21936	11408
28672	17840	9248
29184	23888	13600
29696	51760	41376
30208	19376	9552
30720	18336	8960
31232	19520	10256
31744	16256	8128
32256	16448	8240
32768	28496	16272
33792	26144	17296
34816	28096	20992
35840	18480	11968
36864	16976	10656
37888	16864	11008
38912	14512	10080
39936	13584	9760
40960	13408	9424
41984	15392	10384
43008	15456	10464
44032	14752	10656
45056	17408	11760
46080	14976	9968
47104	14016	8912
48128	13248	8320
49152	14880	9360
50176	14976	9136
51200	16160	10256
52224	19712	14960
53248	18240	15104
54272	12608	9936
55296	11856	9712
56320	10208	7984
57344	10464	8256
58368	10608	8080
59392	16048	13600
60416	15072	12368
61440	12768	10320
62464	11088	8400
63488	11792	9056
64512	12736	10080
65536	30224	23920
67584	25392	19040
69632	30832	23216
71680	30800	24000
73728	34448	30144
75776	43872	39168
77824	43984	38720
79872	35456	30560
81920	32736	27152
83968	32512	26368
86016	39152	31680
88064	39280	31840
90112	31024	24224
92160	32352	26912
94208	45664	40976
96256	32448	29024
98304	30240	27600
100352	31232	27840
102400	26832	22976
104448	24640	20496
106496	27536	21792
108544	29232	22752
110592	29664	21648
112640	32800	23456
114688	31472	23200
116736	37744	30864
118784	26160	20960
120832	22320	18672
122880	20720	17296
124928	19808	16576
126976	17568	14416
129024	17632	14896
131072	33632	29280
135168	30816	27120
139264	30976	27104
143360	34672	31584
147456	35536	33808
151552	41232	39840
155648	36368	34832
159744	33680	31504
163840	33744	31856
167936	32096	30336
172032	46080	42448
176128	46400	42624
180224	27264	23504
184320	21568	16320
188416	21472	15968
192512	20960	16912
196608	22640	19600
200704	22176	19312
204800	23744	19072
208896	24592	19696
212992	25008	20592
217088	25616	18928
221184	26768	17344
225280	29568	17760
229376	31088	20224
233472	37280	26800
237568	43104	34192
241664	32848	23392
245760	31408	22016
249856	30032	20656
253952	28688	19920
258048	24848	15648
262144	48704	27280
270336	43792	26176
278528	40576	23040
286720	48480	32368
294912	59168	38928
303104	51312	31872
311296	48208	26608
319488	51584	25168
327680	66480	29648
335872	55712	24752
344064	63056	25776
352256	53392	23136
360448	31472	18544
368640	37520	26096
376832	34736	19488
385024	31216	20384
393216	33392	19632
401408	32576	19968
409600	56784	46816
417792	53920	44032
425984	34608	24752
434176	41008	28112
442368	40176	27792
450560	35776	25856
458752	39760	23456
466944	33792	20784
475136	31856	19808
483328	43008	27504
491520	36864	27392
499712	36768	25952
507904	27984	17984
516096	26672	19040
524288	56384	39184
540672	98992	80064
557056	66208	38272
573440	44752	36144
589824	37536	32576
606208	38512	34640
622592	36224	33856
638976	36704	33792
655360	39200	34912
671744	39232	33824
688128	37344	31392
704512	37040	31152
720896	39408	32688
737280	39008	32368
753664	51616	39664
770048	51248	34256
786432	43664	36560
802816	62096	52800
819200	60752	56624
835584	58432	54912
851968	54544	51264
868352	44000	42016
884736	43232	41680
901120	48752	47328
917504	51024	49392
933888	51040	49280
950272	59216	57600
966656	121616	120160
983040	202208	200960
999424	45968	44304
1015808	33120	31872
1032192	36784	35472
1048576	75872	71984
1081344	90896	81456
1114112	94400	86048
1146880	93536	84336
1179648	81440	74336
1212416	86416	71664
1245184	74512	60960
1277952	64160	54928
1310720	69520	62288
1343488	53760	50912
1376256	53760	51616
1409024	33232	31824
1441792	26704	25056
1474560	29248	25312
1507328	29888	23312
1540096	31600	21760
1572864	33360	20320
1605632	34304	18912
1638400	33200	19072
1671168	36144	21632
1703936	32528	22576
1736704	18528	18112
1769472	16064	15584
1802240	15984	15008
1835008	15072	14432
1867776	17552	16832
1900544	18208	17440
1933312	20144	19440
1966080	17312	16672
1998848	15584	15024
2031616	13952	12960
2064384	14688	13856
2097152	31280	29360
2162688	29376	27408
2228224	33296	30480
2293760	34976	31616
2359296	32592	30272
2424832	31744	29328
2490368	19664	16928
2555904	15312	13488
2621440	15360	12528
2686976	16864	13136
2752512	16352	13760
2818048	21184	18592
2883584	20176	17088
2949120	17280	14560
3014656	21648	17456
3080192	23952	20912
3145728	24704	21216
3211264	28288	25040
3276800	25904	22176
3342336	25248	22032
3407872	42768	28528
3473408	40896	28736
3538944	30544	28720
3604480	34352	32096
3670016	162704	103984
3735552	53824	32112
3801088	96384	93904
3866624	63776	62016
3932160	21680	19792
3997696	22288	20432
4063232	21072	19408
4128768	17936	14688
4194304	37600	31952
4325376	40192	28688
4456448	55600	22272
4587520	98384	70832
4718592	147024	102576
4849664	48224	38448
4980736	97104	71456
5111808	47744	42272
5242880	45328	40176
5373952	33184	29040
5505024	29872	25616
5636096	18848	17712
5767168	10720	10400
5898240	13904	12816
6029312	169664	168992
6160384	12144	10064
6291456	17056	16864
6422528	25552	20544
6553600	8064	8032
6684672	18832	18560
6815744	17840	17712
6946816	16192	15296
7077888	20432	20192
7208960	16480	16432
7340032	17184	16096
7471104	16144	16080
7602176	12688	12576
7733248	18720	18608
7864320	40048	38880
7995392	15344	15040
8126464	12688	12688
8257536	13200	11520
8388608	49728	45792
8650752	35216	30560
8912896	16096	15472
9175040	46000	44368
9437184	53120	52192
9699328	38320	36832
9961472	24400	23504
10223616	21664	20784
10485760	27296	25888
10747904	27696	27200
11010048	31600	30208
11272192	25376	24768
11534336	23552	22240
11796480	7696	7200
12058624	7712	6560
12320768	6384	4560
12582912	5056	4736
12845056	11248	10112
13107200	15536	14800
13369344	9600	7968
13631488	3264	2704
13893632	13696	11984
14155776	9008	6832
14417920	6000	5568
14680064	19216	18032
14942208	20912	20560
15204352	34768	32912
15466496	21408	20288
15728640	11680	11552
15990784	11184	10256
16252928	6480	5984
16515072	12720	7920
16777216	24144	17344
17301504	22144	18992
17825792	35696	28176
18350080	14016	12864
18874368	23328	21680
19398656	20768	19792
19922944	10224	9360
20447232	14992	5008
20971520	6000	4752
21495808	8880	7712
22020096	6512	4592
22544384	7744	5952
23068672	8576	7696
23592960	13456	10432
24117248	38864	31664
24641536	17008	6288
25165824	10784	8672
25690112	35008	14720
26214400	36304	8080
26738688	5264	2560
27262976	9296	4656
27787264	9040	7472
28311552	14768	13712
28835840	37008	33792
29360128	22720	13152
29884416	12944	5712
30408704	6576	6080
30932992	14480	6528
31457280	55504	8912
31981568	13024	8784
32505856	12144	9376
33030144	14960	8368
33554432	22480	11216
34603008	15472	4672
35651584	30896	4256
36700160	19536	6240
37748736	11424	5456
38797312	6784	6528
39845888	9632	6368
40894464	10736	8288
41943040	21024	9792
42991616	17872	4320
44040192	7776	1616
45088768	13040	11552
46137344	19456	15712
47185920	25072	15792
48234496	24256	6464
49283072	10144	8128
50331648	7280	4176
51380224	12704	11424
52428800	30960	11792
53477376	10384	9664
54525952	8416	7056
55574528	9200	7952
56623104	11920	9424
57671680	23120	4176
58720256	12800	3856
59768832	12992	3344
60817408	27392	10384
61865984	5072	3936
62914560	11296	8256
63963136	15616	10144
65011712	56576	48160
66060288	38256	37040
67108864	66592	64688
69206016	44560	41648
71303168	16864	6096
73400320	7104	3088
75497472	3312	2192
77594624	2880	1712
79691776	2288	1360
81788928	2336	1232
83886080	1584	976
85983232	2320	1664
88080384	2592	1296
90177536	1776	1168
92274688	2496	1712
94371840	1808	656
96468992	1296	912
98566144	1696	704
100663296	976	240
102760448	384	240
104857600	13984	10784
106954752	65952	7856
109051904	192	32
111149056	912	832
113246208	3536	3440
115343360	3712	3504
117440512	3712	3520
119537664	3984	3856
121634816	3760	3616
123731968	4096	3904
125829120	4832	4832
127926272	6144	4272
130023424	4208	4032
132120576	4240	4224
134217728	10560	9824
138412032	9232	3712
142606336	6288	752
146800640	5008	1456
150994944	14112	10192
155189248	5664	1472
159383552	6496	1568
163577856	7552	1776
167772160	7920	1968
171966464	8176	1984
176160768	6080	2112
180355072	26752	25920
184549376	28784	20032
188743680	18288	18288
192937984	9296	9296
197132288	5232	5216
201326592	69008	67664
205520896	15360	15360
209715200	14192	14192
213909504	18224	18224
218103808	26368	26352
222298112	29008	29008
226492416	8864	8864
230686720	5456	5456
234881024	19440	10896
239075328	18528	960
243269632	9904	9104
247463936	9168	8800
251658240	16	16
255852544	8128	8128
260046848	272	272
264241152	272	272
268435456	8464	8464
276824064	15056	5008
285212672	0	0
293601280	0	0
301989888	0	0
310378496	0	0
318767104	0	0
327155712	0	0
335544320	0	0
343932928	0	0
352321536	0	0
360710144	0	0
369098752	0	0
377487360	0	0
385875968	0	0
394264576	0	0
402653184	0	0
411041792	0	0
419430400	0	0
427819008	0	0
436207616	0	0
444596224	0	0
452984832	0	0
461373440	0	0
469762048	0	0
478150656	0	0
486539264	0	0
494927872	0	0
503316480	0	0
511705088	0	0
520093696	0	0
528482304	0	0
536870912	0	0
553648128	0	0
570425344	0	0
587202560	0	0
603979776	0	0
620756992	0	0
637534208	0	0
654311424	0	0
671088640	0	0
687865856	0	0
704643072	0	0
721420288	0	0
738197504	0	0
754974720	0	0
771751936	0	0
788529152	0	0
805306368	0	0
822083584	0	0
838860800	0	0
855638016	0	0
872415232	0	0
889192448	0	0
905969664	0	0
922746880	0	0
939524096	0	0
956301312	0	0
973078528	0	0
989855744	0	0
1006632960	0	0
1023410176	0	0
1040187392	0	0
1056964608	0	0
1073741824	0	0
1107296256	0	0
1140850688	0	0
1174405120	0	0
1207959552	0	0
1241513984	0	0
1275068416	0	0
1308622848	0	0
1342177280	0	0
1375731712	0	0
1409286144	0	0
1442840576	0	0
1476395008	0	0
1509949440	0	0
1543503872	0	0
1577058304	0	0
1610612736	0	0
1644167168	0	0
1677721600	0	0
1711276032	0	0
1744830464	0	0
1778384896	0	0
1811939328	0	0
1845493760	0	0
1879048192	0	0
1912602624	0	0
1946157056	0	0
1979711488	0	0
2013265920	0	0
2046820352	0	0
2080374784	0	0
2113929216	0	0
2147483648	0	0
2214592512	0	0
2281701376	0	0
2348810240	0	0
2415919104	0	0
2483027968	0	0
2550136832	0	0
2617245696	0	0
2684354560	0	0
2751463424	0	0
2818572288	0	0
2885681152	0	0
2952790016	0	0
3019898880	0	0
3087007744	0	0
3154116608	0	0
3221225472	0	0
3288334336	0	0
3355443200	0	0
3422552064	0	0
3489660928	0	0
3556769792	0	0
3623878656	0	0
3690987520	0	0
3758096384	0	0
3825205248	0	0
3892314112	0	0
3959422976	0	0
4026531840	0	0
4093640704	0	0
4160749568	0	0
4227858432	0	0
~~~~~~~~~~Reuse Distance Profiler output end~~~~~~~~~~

DRAM Statistics
 CHANNEL 0
 RQ ROW_BUFFER_HIT:     923678  ROW_BUFFER_MISS:    7139090
 DBUS AVG_CONGESTED_CYCLE:     3.9564
 WQ ROW_BUFFER_HIT:     259802  ROW_BUFFER_MISS:    3158509  FULL:          0


CPU 0 Branch Prediction Accuracy: 95.6189% MPKI: 4.34092 Average ROB Occupancy at Mispredict: 147.765
Branch type MPKI
BRANCH_DIRECT_JUMP: 0.000239333
BRANCH_INDIRECT: 1.13333e-05
BRANCH_CONDITIONAL: 4.33898
BRANCH_DIRECT_CALL: 0.001616
BRANCH_INDIRECT_CALL: 0
BRANCH_RETURN: 7.73333e-05

