
*** ChampSim Multicore Out-of-Order Simulator ***

Warmup Instructions: 500000000
Simulation Instructions: 1500000000
Number of CPUs: 1
Off-chip DRAM Size: 4 GiB Channels: 1 Width: 64-bit Data Rate: 3200 MT/s

VirtualMemory physical capacity: 8588881920 num_ppages: 2096895
VirtualMemory page size: 4096 log2_page_size: 12

CPU 0 runs traces/621.wrf_s-575B.champsimtrace.xz
CPU 0 Bimodal branch predictor
Basic BTB sets: 1024 ways: 8 indirect buffer size: 4096 RAS size: 64
Initializing LRU.
Initializing LRU.
Initializing LRU.
Initializing LRU.
Initializing rdLRU.
Initializing LRU.
Initializing LRU.
Heartbeat CPU 0 instructions: 10000003 cycles: 2501566 heartbeat IPC: 3.9975 cumulative IPC: 3.9975 (Simulation time: 0 hr 0 min 35 sec) 
Heartbeat CPU 0 instructions: 20000002 cycles: 5003003 heartbeat IPC: 3.9977 cumulative IPC: 3.9976 (Simulation time: 0 hr 1 min 7 sec) 
Heartbeat CPU 0 instructions: 30000002 cycles: 7504436 heartbeat IPC: 3.99771 cumulative IPC: 3.99764 (Simulation time: 0 hr 1 min 40 sec) 
Heartbeat CPU 0 instructions: 40000003 cycles: 10005866 heartbeat IPC: 3.99771 cumulative IPC: 3.99766 (Simulation time: 0 hr 2 min 9 sec) 
Heartbeat CPU 0 instructions: 50000002 cycles: 12507298 heartbeat IPC: 3.99771 cumulative IPC: 3.99767 (Simulation time: 0 hr 2 min 38 sec) 
Heartbeat CPU 0 instructions: 60000003 cycles: 15008723 heartbeat IPC: 3.99772 cumulative IPC: 3.99768 (Simulation time: 0 hr 3 min 8 sec) 
Heartbeat CPU 0 instructions: 70000002 cycles: 17511558 heartbeat IPC: 3.99547 cumulative IPC: 3.99736 (Simulation time: 0 hr 3 min 37 sec) 
Heartbeat CPU 0 instructions: 80000000 cycles: 20012970 heartbeat IPC: 3.99774 cumulative IPC: 3.99741 (Simulation time: 0 hr 4 min 6 sec) 
Heartbeat CPU 0 instructions: 90000002 cycles: 22514382 heartbeat IPC: 3.99774 cumulative IPC: 3.99744 (Simulation time: 0 hr 4 min 35 sec) 
Heartbeat CPU 0 instructions: 100000003 cycles: 25015786 heartbeat IPC: 3.99776 cumulative IPC: 3.99748 (Simulation time: 0 hr 5 min 4 sec) 
Heartbeat CPU 0 instructions: 110000002 cycles: 27517187 heartbeat IPC: 3.99776 cumulative IPC: 3.9975 (Simulation time: 0 hr 5 min 41 sec) 
Heartbeat CPU 0 instructions: 120000002 cycles: 30018590 heartbeat IPC: 3.99776 cumulative IPC: 3.99752 (Simulation time: 0 hr 6 min 26 sec) 
Heartbeat CPU 0 instructions: 130000003 cycles: 32519990 heartbeat IPC: 3.99776 cumulative IPC: 3.99754 (Simulation time: 0 hr 7 min 1 sec) 
Heartbeat CPU 0 instructions: 140000003 cycles: 35022791 heartbeat IPC: 3.99552 cumulative IPC: 3.9974 (Simulation time: 0 hr 7 min 46 sec) 
Heartbeat CPU 0 instructions: 150000003 cycles: 37524193 heartbeat IPC: 3.99776 cumulative IPC: 3.99742 (Simulation time: 0 hr 8 min 19 sec) 
Heartbeat CPU 0 instructions: 160000001 cycles: 40025598 heartbeat IPC: 3.99775 cumulative IPC: 3.99744 (Simulation time: 0 hr 9 min 3 sec) 
Heartbeat CPU 0 instructions: 170000003 cycles: 42527004 heartbeat IPC: 3.99775 cumulative IPC: 3.99746 (Simulation time: 0 hr 9 min 41 sec) 
Heartbeat CPU 0 instructions: 180000001 cycles: 45028412 heartbeat IPC: 3.99775 cumulative IPC: 3.99748 (Simulation time: 0 hr 10 min 16 sec) 
Heartbeat CPU 0 instructions: 190000000 cycles: 47529822 heartbeat IPC: 3.99774 cumulative IPC: 3.99749 (Simulation time: 0 hr 10 min 56 sec) 
Heartbeat CPU 0 instructions: 200000003 cycles: 50032652 heartbeat IPC: 3.99548 cumulative IPC: 3.99739 (Simulation time: 0 hr 11 min 41 sec) 
Heartbeat CPU 0 instructions: 210000002 cycles: 52534060 heartbeat IPC: 3.99775 cumulative IPC: 3.99741 (Simulation time: 0 hr 12 min 30 sec) 
Heartbeat CPU 0 instructions: 220000001 cycles: 55035464 heartbeat IPC: 3.99775 cumulative IPC: 3.99742 (Simulation time: 0 hr 13 min 18 sec) 
Heartbeat CPU 0 instructions: 230000000 cycles: 57536869 heartbeat IPC: 3.99775 cumulative IPC: 3.99744 (Simulation time: 0 hr 14 min 9 sec) 
Heartbeat CPU 0 instructions: 240000001 cycles: 60038276 heartbeat IPC: 3.99775 cumulative IPC: 3.99745 (Simulation time: 0 hr 14 min 57 sec) 
Heartbeat CPU 0 instructions: 250000000 cycles: 62539683 heartbeat IPC: 3.99775 cumulative IPC: 3.99746 (Simulation time: 0 hr 15 min 30 sec) 
Heartbeat CPU 0 instructions: 260000000 cycles: 65042489 heartbeat IPC: 3.99552 cumulative IPC: 3.99739 (Simulation time: 0 hr 16 min 13 sec) 
Heartbeat CPU 0 instructions: 270000001 cycles: 67543902 heartbeat IPC: 3.99774 cumulative IPC: 3.9974 (Simulation time: 0 hr 17 min 5 sec) 
Heartbeat CPU 0 instructions: 280000001 cycles: 70045325 heartbeat IPC: 3.99772 cumulative IPC: 3.99741 (Simulation time: 0 hr 17 min 56 sec) 
Heartbeat CPU 0 instructions: 290000001 cycles: 72546751 heartbeat IPC: 3.99772 cumulative IPC: 3.99742 (Simulation time: 0 hr 18 min 47 sec) 
Heartbeat CPU 0 instructions: 300000003 cycles: 75048178 heartbeat IPC: 3.99772 cumulative IPC: 3.99743 (Simulation time: 0 hr 19 min 38 sec) 
Heartbeat CPU 0 instructions: 310000000 cycles: 77549599 heartbeat IPC: 3.99773 cumulative IPC: 3.99744 (Simulation time: 0 hr 20 min 29 sec) 
Heartbeat CPU 0 instructions: 320000003 cycles: 80051014 heartbeat IPC: 3.99774 cumulative IPC: 3.99745 (Simulation time: 0 hr 21 min 21 sec) 
Heartbeat CPU 0 instructions: 330000002 cycles: 82553275 heartbeat IPC: 3.99639 cumulative IPC: 3.99742 (Simulation time: 0 hr 21 min 59 sec) 
Heartbeat CPU 0 instructions: 340000001 cycles: 85053942 heartbeat IPC: 3.99893 cumulative IPC: 3.99746 (Simulation time: 0 hr 22 min 51 sec) 
Heartbeat CPU 0 instructions: 350000003 cycles: 87553963 heartbeat IPC: 3.99997 cumulative IPC: 3.99753 (Simulation time: 0 hr 23 min 40 sec) 
Heartbeat CPU 0 instructions: 360000001 cycles: 90053942 heartbeat IPC: 4.00003 cumulative IPC: 3.9976 (Simulation time: 0 hr 24 min 35 sec) 
Heartbeat CPU 0 instructions: 370000001 cycles: 92553942 heartbeat IPC: 4 cumulative IPC: 3.99767 (Simulation time: 0 hr 25 min 31 sec) 
Heartbeat CPU 0 instructions: 380000001 cycles: 95053942 heartbeat IPC: 4 cumulative IPC: 3.99773 (Simulation time: 0 hr 26 min 20 sec) 
Heartbeat CPU 0 instructions: 390000002 cycles: 97941159 heartbeat IPC: 3.46354 cumulative IPC: 3.98198 (Simulation time: 0 hr 27 min 28 sec) 
Heartbeat CPU 0 instructions: 400000000 cycles: 101053292 heartbeat IPC: 3.21323 cumulative IPC: 3.95831 (Simulation time: 0 hr 28 min 46 sec) 
Heartbeat CPU 0 instructions: 410000002 cycles: 104162725 heartbeat IPC: 3.21602 cumulative IPC: 3.93615 (Simulation time: 0 hr 30 min 5 sec) 
Heartbeat CPU 0 instructions: 420000001 cycles: 107277161 heartbeat IPC: 3.21085 cumulative IPC: 3.91509 (Simulation time: 0 hr 31 min 24 sec) 
Heartbeat CPU 0 instructions: 430000003 cycles: 110396831 heartbeat IPC: 3.20547 cumulative IPC: 3.89504 (Simulation time: 0 hr 32 min 43 sec) 
Heartbeat CPU 0 instructions: 440000002 cycles: 113511131 heartbeat IPC: 3.21099 cumulative IPC: 3.87627 (Simulation time: 0 hr 34 min 2 sec) 
Heartbeat CPU 0 instructions: 450000000 cycles: 116606834 heartbeat IPC: 3.23028 cumulative IPC: 3.85912 (Simulation time: 0 hr 35 min 14 sec) 
Heartbeat CPU 0 instructions: 460000001 cycles: 119706559 heartbeat IPC: 3.22609 cumulative IPC: 3.84273 (Simulation time: 0 hr 36 min 21 sec) 
Heartbeat CPU 0 instructions: 470000000 cycles: 122837137 heartbeat IPC: 3.1943 cumulative IPC: 3.8262 (Simulation time: 0 hr 37 min 5 sec) 
Heartbeat CPU 0 instructions: 480000002 cycles: 125922523 heartbeat IPC: 3.24109 cumulative IPC: 3.81187 (Simulation time: 0 hr 37 min 48 sec) 
Heartbeat CPU 0 instructions: 490000003 cycles: 128836126 heartbeat IPC: 3.43218 cumulative IPC: 3.80328 (Simulation time: 0 hr 38 min 29 sec) 
Heartbeat CPU 0 instructions: 500000001 cycles: 131454618 heartbeat IPC: 3.81899 cumulative IPC: 3.80359 (Simulation time: 0 hr 39 min 6 sec) 

Warmup complete CPU 0 instructions: 500000001 cycles: 131454618 (Simulation time: 0 hr 39 min 6 sec) 

Heartbeat CPU 0 instructions: 510000002 cycles: 138239815 heartbeat IPC: 1.4738 cumulative IPC: 1.4738 (Simulation time: 0 hr 40 min 23 sec) 
Heartbeat CPU 0 instructions: 520000001 cycles: 144915568 heartbeat IPC: 1.49796 cumulative IPC: 1.48578 (Simulation time: 0 hr 42 min 9 sec) 
Heartbeat CPU 0 instructions: 530000000 cycles: 151851175 heartbeat IPC: 1.44183 cumulative IPC: 1.47084 (Simulation time: 0 hr 43 min 22 sec) 
Heartbeat CPU 0 instructions: 540000002 cycles: 158775593 heartbeat IPC: 1.44416 cumulative IPC: 1.46408 (Simulation time: 0 hr 44 min 21 sec) 
Heartbeat CPU 0 instructions: 550000003 cycles: 165715340 heartbeat IPC: 1.44097 cumulative IPC: 1.4594 (Simulation time: 0 hr 45 min 19 sec) 
Heartbeat CPU 0 instructions: 560000000 cycles: 172428489 heartbeat IPC: 1.48961 cumulative IPC: 1.46435 (Simulation time: 0 hr 46 min 18 sec) 
Heartbeat CPU 0 instructions: 570000004 cycles: 179239447 heartbeat IPC: 1.46822 cumulative IPC: 1.4649 (Simulation time: 0 hr 47 min 16 sec) 
Heartbeat CPU 0 instructions: 580000002 cycles: 186097135 heartbeat IPC: 1.45822 cumulative IPC: 1.46406 (Simulation time: 0 hr 48 min 16 sec) 
Heartbeat CPU 0 instructions: 590000000 cycles: 193019755 heartbeat IPC: 1.44454 cumulative IPC: 1.46187 (Simulation time: 0 hr 49 min 15 sec) 
Heartbeat CPU 0 instructions: 600000001 cycles: 199900722 heartbeat IPC: 1.45328 cumulative IPC: 1.461 (Simulation time: 0 hr 50 min 31 sec) 
Heartbeat CPU 0 instructions: 610000003 cycles: 206635316 heartbeat IPC: 1.48487 cumulative IPC: 1.46314 (Simulation time: 0 hr 52 min 12 sec) 
Heartbeat CPU 0 instructions: 620000003 cycles: 223140362 heartbeat IPC: 0.605875 cumulative IPC: 1.30882 (Simulation time: 0 hr 55 min 45 sec) 
Heartbeat CPU 0 instructions: 630000004 cycles: 238444636 heartbeat IPC: 0.653412 cumulative IPC: 1.21507 (Simulation time: 0 hr 57 min 42 sec) 
Heartbeat CPU 0 instructions: 640000004 cycles: 252364438 heartbeat IPC: 0.718401 cumulative IPC: 1.15789 (Simulation time: 0 hr 59 min 29 sec) 
Heartbeat CPU 0 instructions: 650000002 cycles: 270490330 heartbeat IPC: 0.551697 cumulative IPC: 1.07886 (Simulation time: 1 hr 2 min 9 sec) 
Heartbeat CPU 0 instructions: 660000001 cycles: 283675958 heartbeat IPC: 0.758401 cumulative IPC: 1.0511 (Simulation time: 1 hr 3 min 42 sec) 
Heartbeat CPU 0 instructions: 670000002 cycles: 294350941 heartbeat IPC: 0.93677 cumulative IPC: 1.04361 (Simulation time: 1 hr 5 min 14 sec) 
Heartbeat CPU 0 instructions: 680000003 cycles: 320187236 heartbeat IPC: 0.387052 cumulative IPC: 0.95373 (Simulation time: 1 hr 8 min 24 sec) 
Heartbeat CPU 0 instructions: 690000003 cycles: 325799466 heartbeat IPC: 1.78182 cumulative IPC: 0.977644 (Simulation time: 1 hr 9 min 48 sec) 
Heartbeat CPU 0 instructions: 700000004 cycles: 331255608 heartbeat IPC: 1.8328 cumulative IPC: 1.001 (Simulation time: 1 hr 11 min 28 sec) 
Heartbeat CPU 0 instructions: 710000001 cycles: 336390098 heartbeat IPC: 1.94761 cumulative IPC: 1.02471 (Simulation time: 1 hr 13 min 10 sec) 
Heartbeat CPU 0 instructions: 720000000 cycles: 341475852 heartbeat IPC: 1.96628 cumulative IPC: 1.04751 (Simulation time: 1 hr 15 min 0 sec) 
Heartbeat CPU 0 instructions: 730000001 cycles: 346610973 heartbeat IPC: 1.94737 cumulative IPC: 1.06899 (Simulation time: 1 hr 16 min 54 sec) 
Heartbeat CPU 0 instructions: 740000004 cycles: 354846847 heartbeat IPC: 1.2142 cumulative IPC: 1.07434 (Simulation time: 1 hr 18 min 25 sec) 
Heartbeat CPU 0 instructions: 750000004 cycles: 374868090 heartbeat IPC: 0.499469 cumulative IPC: 1.02706 (Simulation time: 1 hr 20 min 55 sec) 
Heartbeat CPU 0 instructions: 760000000 cycles: 389567368 heartbeat IPC: 0.680305 cumulative IPC: 1.00731 (Simulation time: 1 hr 22 min 45 sec) 
Heartbeat CPU 0 instructions: 770000001 cycles: 404543336 heartbeat IPC: 0.667737 cumulative IPC: 0.98869 (Simulation time: 1 hr 25 min 9 sec) 
Heartbeat CPU 0 instructions: 780000003 cycles: 415384417 heartbeat IPC: 0.922417 cumulative IPC: 0.986159 (Simulation time: 1 hr 28 min 2 sec) 
Heartbeat CPU 0 instructions: 790000004 cycles: 424814457 heartbeat IPC: 1.06044 cumulative IPC: 0.988547 (Simulation time: 1 hr 29 min 36 sec) 
Heartbeat CPU 0 instructions: 800000003 cycles: 436919188 heartbeat IPC: 0.826123 cumulative IPC: 0.982111 (Simulation time: 1 hr 31 min 24 sec) 
Heartbeat CPU 0 instructions: 810000000 cycles: 454194708 heartbeat IPC: 0.578854 cumulative IPC: 0.960525 (Simulation time: 1 hr 33 min 53 sec) 
Heartbeat CPU 0 instructions: 820000003 cycles: 492974486 heartbeat IPC: 0.257866 cumulative IPC: 0.885152 (Simulation time: 1 hr 39 min 27 sec) 
Heartbeat CPU 0 instructions: 830000004 cycles: 511748488 heartbeat IPC: 0.532652 cumulative IPC: 0.86775 (Simulation time: 1 hr 43 min 35 sec) 
Heartbeat CPU 0 instructions: 840000000 cycles: 526292243 heartbeat IPC: 0.68758 cumulative IPC: 0.861113 (Simulation time: 1 hr 46 min 41 sec) 
Heartbeat CPU 0 instructions: 850000004 cycles: 560129534 heartbeat IPC: 0.295532 cumulative IPC: 0.816469 (Simulation time: 1 hr 53 min 9 sec) 
Heartbeat CPU 0 instructions: 860000000 cycles: 577370402 heartbeat IPC: 0.580017 cumulative IPC: 0.807327 (Simulation time: 1 hr 56 min 29 sec) 
Heartbeat CPU 0 instructions: 870000004 cycles: 582823590 heartbeat IPC: 1.83379 cumulative IPC: 0.819728 (Simulation time: 1 hr 58 min 0 sec) 
Heartbeat CPU 0 instructions: 880000002 cycles: 593130826 heartbeat IPC: 0.970192 cumulative IPC: 0.823088 (Simulation time: 1 hr 59 min 40 sec) 
Heartbeat CPU 0 instructions: 890000001 cycles: 598593984 heartbeat IPC: 1.83044 cumulative IPC: 0.834869 (Simulation time: 2 hr 0 min 42 sec) 
Heartbeat CPU 0 instructions: 900000001 cycles: 607588918 heartbeat IPC: 1.11174 cumulative IPC: 0.840099 (Simulation time: 2 hr 2 min 11 sec) 
Heartbeat CPU 0 instructions: 910000003 cycles: 612726816 heartbeat IPC: 1.94632 cumulative IPC: 0.851909 (Simulation time: 2 hr 3 min 14 sec) 
Heartbeat CPU 0 instructions: 920000004 cycles: 621579376 heartbeat IPC: 1.12962 cumulative IPC: 0.856925 (Simulation time: 2 hr 4 min 58 sec) 
Heartbeat CPU 0 instructions: 930000003 cycles: 626781290 heartbeat IPC: 1.92237 cumulative IPC: 0.868114 (Simulation time: 2 hr 6 min 33 sec) 
Heartbeat CPU 0 instructions: 940000003 cycles: 635596587 heartbeat IPC: 1.13439 cumulative IPC: 0.87277 (Simulation time: 2 hr 8 min 17 sec) 
Heartbeat CPU 0 instructions: 950000000 cycles: 640926892 heartbeat IPC: 1.87606 cumulative IPC: 0.883267 (Simulation time: 2 hr 9 min 50 sec) 
Heartbeat CPU 0 instructions: 960000001 cycles: 650149191 heartbeat IPC: 1.08433 cumulative IPC: 0.886842 (Simulation time: 2 hr 11 min 25 sec) 
Heartbeat CPU 0 instructions: 970000002 cycles: 658867326 heartbeat IPC: 1.14703 cumulative IPC: 0.891143 (Simulation time: 2 hr 12 min 26 sec) 
Heartbeat CPU 0 instructions: 980000001 cycles: 667769705 heartbeat IPC: 1.1233 cumulative IPC: 0.894996 (Simulation time: 2 hr 13 min 27 sec) 
Heartbeat CPU 0 instructions: 990000001 cycles: 676789567 heartbeat IPC: 1.10866 cumulative IPC: 0.89853 (Simulation time: 2 hr 14 min 29 sec) 
Heartbeat CPU 0 instructions: 1000000003 cycles: 690471223 heartbeat IPC: 0.730906 cumulative IPC: 0.894428 (Simulation time: 2 hr 16 min 11 sec) 
Heartbeat CPU 0 instructions: 1010000003 cycles: 710514894 heartbeat IPC: 0.498911 cumulative IPC: 0.880737 (Simulation time: 2 hr 18 min 41 sec) 
Heartbeat CPU 0 instructions: 1020000003 cycles: 716283204 heartbeat IPC: 1.73361 cumulative IPC: 0.889149 (Simulation time: 2 hr 19 min 48 sec) 
Heartbeat CPU 0 instructions: 1030000004 cycles: 721766196 heartbeat IPC: 1.82382 cumulative IPC: 0.897831 (Simulation time: 2 hr 20 min 56 sec) 
Heartbeat CPU 0 instructions: 1040000004 cycles: 727021554 heartbeat IPC: 1.90282 cumulative IPC: 0.906699 (Simulation time: 2 hr 22 min 2 sec) 
Heartbeat CPU 0 instructions: 1050000001 cycles: 732134916 heartbeat IPC: 1.95566 cumulative IPC: 0.915628 (Simulation time: 2 hr 23 min 4 sec) 
Heartbeat CPU 0 instructions: 1060000003 cycles: 737261732 heartbeat IPC: 1.95053 cumulative IPC: 0.924387 (Simulation time: 2 hr 24 min 7 sec) 
Heartbeat CPU 0 instructions: 1070000000 cycles: 742035728 heartbeat IPC: 2.09468 cumulative IPC: 0.933537 (Simulation time: 2 hr 25 min 4 sec) 
Heartbeat CPU 0 instructions: 1080000000 cycles: 756480194 heartbeat IPC: 0.692307 cumulative IPC: 0.927962 (Simulation time: 2 hr 27 min 0 sec) 
Heartbeat CPU 0 instructions: 1090000003 cycles: 776462511 heartbeat IPC: 0.500443 cumulative IPC: 0.914717 (Simulation time: 2 hr 29 min 37 sec) 
Heartbeat CPU 0 instructions: 1100000003 cycles: 789248410 heartbeat IPC: 0.782112 cumulative IPC: 0.91214 (Simulation time: 2 hr 32 min 8 sec) 
Heartbeat CPU 0 instructions: 1110000002 cycles: 804470856 heartbeat IPC: 0.656925 cumulative IPC: 0.906367 (Simulation time: 2 hr 34 min 4 sec) 
Heartbeat CPU 0 instructions: 1120000000 cycles: 825526198 heartbeat IPC: 0.474939 cumulative IPC: 0.89328 (Simulation time: 2 hr 36 min 35 sec) 
Heartbeat CPU 0 instructions: 1130000001 cycles: 855134249 heartbeat IPC: 0.337746 cumulative IPC: 0.870551 (Simulation time: 2 hr 40 min 26 sec) 
Heartbeat CPU 0 instructions: 1140000002 cycles: 869792716 heartbeat IPC: 0.6822 cumulative IPC: 0.866812 (Simulation time: 2 hr 42 min 53 sec) 
Heartbeat CPU 0 instructions: 1150000002 cycles: 885757828 heartbeat IPC: 0.626366 cumulative IPC: 0.861722 (Simulation time: 2 hr 45 min 11 sec) 
Heartbeat CPU 0 instructions: 1160000002 cycles: 914875645 heartbeat IPC: 0.343432 cumulative IPC: 0.842459 (Simulation time: 2 hr 48 min 22 sec) 
Heartbeat CPU 0 instructions: 1170000001 cycles: 929575556 heartbeat IPC: 0.680276 cumulative IPC: 0.839472 (Simulation time: 2 hr 50 min 21 sec) 
Heartbeat CPU 0 instructions: 1180000000 cycles: 959754628 heartbeat IPC: 0.331355 cumulative IPC: 0.820959 (Simulation time: 2 hr 53 min 58 sec) 
Heartbeat CPU 0 instructions: 1190000001 cycles: 980464501 heartbeat IPC: 0.482862 cumulative IPC: 0.812711 (Simulation time: 2 hr 56 min 32 sec) 
Heartbeat CPU 0 instructions: 1200000001 cycles: 985598259 heartbeat IPC: 1.94789 cumulative IPC: 0.819534 (Simulation time: 2 hr 57 min 41 sec) 
Heartbeat CPU 0 instructions: 1210000003 cycles: 994501408 heartbeat IPC: 1.1232 cumulative IPC: 0.822667 (Simulation time: 2 hr 59 min 2 sec) 
Heartbeat CPU 0 instructions: 1220000000 cycles: 1001949922 heartbeat IPC: 1.34255 cumulative IPC: 0.827115 (Simulation time: 3 hr 0 min 12 sec) 
Heartbeat CPU 0 instructions: 1230000000 cycles: 1007146326 heartbeat IPC: 1.92441 cumulative IPC: 0.833627 (Simulation time: 3 hr 1 min 10 sec) 
Heartbeat CPU 0 instructions: 1240000001 cycles: 1014684887 heartbeat IPC: 1.32651 cumulative IPC: 0.837834 (Simulation time: 3 hr 2 min 26 sec) 
Heartbeat CPU 0 instructions: 1250000003 cycles: 1019867883 heartbeat IPC: 1.92939 cumulative IPC: 0.844202 (Simulation time: 3 hr 3 min 25 sec) 
Heartbeat CPU 0 instructions: 1260000003 cycles: 1027391643 heartbeat IPC: 1.32912 cumulative IPC: 0.848274 (Simulation time: 3 hr 4 min 37 sec) 
Heartbeat CPU 0 instructions: 1270000004 cycles: 1035175787 heartbeat IPC: 1.28466 cumulative IPC: 0.852033 (Simulation time: 3 hr 5 min 52 sec) 
Heartbeat CPU 0 instructions: 1280000000 cycles: 1043894696 heartbeat IPC: 1.14693 cumulative IPC: 0.854851 (Simulation time: 3 hr 6 min 53 sec) 
Heartbeat CPU 0 instructions: 1290000004 cycles: 1052811231 heartbeat IPC: 1.12151 cumulative IPC: 0.857431 (Simulation time: 3 hr 7 min 54 sec) 
Heartbeat CPU 0 instructions: 1300000000 cycles: 1061840452 heartbeat IPC: 1.10751 cumulative IPC: 0.859858 (Simulation time: 3 hr 9 min 0 sec) 
Heartbeat CPU 0 instructions: 1310000004 cycles: 1075476052 heartbeat IPC: 0.733375 cumulative IPC: 0.858031 (Simulation time: 3 hr 10 min 40 sec) 
Heartbeat CPU 0 instructions: 1320000000 cycles: 1095446097 heartbeat IPC: 0.50075 cumulative IPC: 0.85063 (Simulation time: 3 hr 13 min 7 sec) 
Heartbeat CPU 0 instructions: 1330000000 cycles: 1101186510 heartbeat IPC: 1.74203 cumulative IPC: 0.855907 (Simulation time: 3 hr 14 min 14 sec) 
Heartbeat CPU 0 instructions: 1340000001 cycles: 1106660601 heartbeat IPC: 1.82679 cumulative IPC: 0.861356 (Simulation time: 3 hr 15 min 22 sec) 
Heartbeat CPU 0 instructions: 1350000004 cycles: 1111902722 heartbeat IPC: 1.90763 cumulative IPC: 0.866951 (Simulation time: 3 hr 16 min 28 sec) 
Heartbeat CPU 0 instructions: 1360000003 cycles: 1117030188 heartbeat IPC: 1.95028 cumulative IPC: 0.872587 (Simulation time: 3 hr 17 min 29 sec) 
Heartbeat CPU 0 instructions: 1370000003 cycles: 1122154116 heartbeat IPC: 1.95163 cumulative IPC: 0.878167 (Simulation time: 3 hr 18 min 32 sec) 
Heartbeat CPU 0 instructions: 1380000001 cycles: 1126914859 heartbeat IPC: 2.10051 cumulative IPC: 0.884013 (Simulation time: 3 hr 19 min 28 sec) 
Heartbeat CPU 0 instructions: 1390000001 cycles: 1141770517 heartbeat IPC: 0.673144 cumulative IPC: 0.880913 (Simulation time: 3 hr 21 min 26 sec) 
Heartbeat CPU 0 instructions: 1400000000 cycles: 1161511433 heartbeat IPC: 0.506562 cumulative IPC: 0.873738 (Simulation time: 3 hr 23 min 41 sec) 
Heartbeat CPU 0 instructions: 1410000003 cycles: 1174309803 heartbeat IPC: 0.78135 cumulative IPC: 0.872604 (Simulation time: 3 hr 25 min 19 sec) 
Heartbeat CPU 0 instructions: 1420000000 cycles: 1189476342 heartbeat IPC: 0.659346 cumulative IPC: 0.869547 (Simulation time: 3 hr 27 min 13 sec) 
Heartbeat CPU 0 instructions: 1430000004 cycles: 1212151516 heartbeat IPC: 0.441011 cumulative IPC: 0.860556 (Simulation time: 3 hr 29 min 55 sec) 
Heartbeat CPU 0 instructions: 1440000004 cycles: 1240238063 heartbeat IPC: 0.356042 cumulative IPC: 0.847776 (Simulation time: 3 hr 32 min 51 sec) 
Heartbeat CPU 0 instructions: 1450000001 cycles: 1255067080 heartbeat IPC: 0.674353 cumulative IPC: 0.845487 (Simulation time: 3 hr 34 min 48 sec) 
Heartbeat CPU 0 instructions: 1460000003 cycles: 1270907628 heartbeat IPC: 0.631291 cumulative IPC: 0.84251 (Simulation time: 3 hr 36 min 51 sec) 
Heartbeat CPU 0 instructions: 1470000003 cycles: 1300038341 heartbeat IPC: 0.34328 cumulative IPC: 0.830065 (Simulation time: 3 hr 40 min 1 sec) 
Heartbeat CPU 0 instructions: 1480000001 cycles: 1314703525 heartbeat IPC: 0.681887 cumulative IPC: 0.828228 (Simulation time: 3 hr 42 min 2 sec) 
Heartbeat CPU 0 instructions: 1490000000 cycles: 1341197139 heartbeat IPC: 0.377449 cumulative IPC: 0.818356 (Simulation time: 3 hr 45 min 2 sec) 
Heartbeat CPU 0 instructions: 1500000003 cycles: 1357828845 heartbeat IPC: 0.601261 cumulative IPC: 0.815412 (Simulation time: 3 hr 47 min 6 sec) 
Heartbeat CPU 0 instructions: 1510000003 cycles: 1372777526 heartbeat IPC: 0.668955 cumulative IPC: 0.813648 (Simulation time: 3 hr 49 min 6 sec) 
Heartbeat CPU 0 instructions: 1520000000 cycles: 1400193715 heartbeat IPC: 0.364748 cumulative IPC: 0.803948 (Simulation time: 3 hr 52 min 9 sec) 
Heartbeat CPU 0 instructions: 1530000000 cycles: 1415072678 heartbeat IPC: 0.67209 cumulative IPC: 0.802419 (Simulation time: 3 hr 54 min 11 sec) 
Heartbeat CPU 0 instructions: 1540000000 cycles: 1435321537 heartbeat IPC: 0.493855 cumulative IPC: 0.797627 (Simulation time: 3 hr 56 min 43 sec) 
Heartbeat CPU 0 instructions: 1550000004 cycles: 1472407519 heartbeat IPC: 0.269644 cumulative IPC: 0.783025 (Simulation time: 4 hr 0 min 44 sec) 
Heartbeat CPU 0 instructions: 1560000003 cycles: 1483808252 heartbeat IPC: 0.877136 cumulative IPC: 0.783819 (Simulation time: 4 hr 2 min 21 sec) 
Heartbeat CPU 0 instructions: 1570000004 cycles: 1490084474 heartbeat IPC: 1.59332 cumulative IPC: 0.787558 (Simulation time: 4 hr 3 min 22 sec) 
Heartbeat CPU 0 instructions: 1580000001 cycles: 1496951118 heartbeat IPC: 1.45632 cumulative IPC: 0.790921 (Simulation time: 4 hr 4 min 26 sec) 
Heartbeat CPU 0 instructions: 1590000004 cycles: 1508109328 heartbeat IPC: 0.896201 cumulative IPC: 0.791774 (Simulation time: 4 hr 6 min 2 sec) 
Heartbeat CPU 0 instructions: 1600000001 cycles: 1517913232 heartbeat IPC: 1.02 cumulative IPC: 0.793388 (Simulation time: 4 hr 7 min 28 sec) 
Heartbeat CPU 0 instructions: 1610000002 cycles: 1524328338 heartbeat IPC: 1.55882 cumulative IPC: 0.796914 (Simulation time: 4 hr 8 min 30 sec) 
Heartbeat CPU 0 instructions: 1620000004 cycles: 1531376370 heartbeat IPC: 1.41884 cumulative IPC: 0.800045 (Simulation time: 4 hr 9 min 35 sec) 
Heartbeat CPU 0 instructions: 1630000001 cycles: 1545556999 heartbeat IPC: 0.705187 cumulative IPC: 0.799093 (Simulation time: 4 hr 10 min 59 sec) 
Heartbeat CPU 0 instructions: 1640000002 cycles: 1554254295 heartbeat IPC: 1.14978 cumulative IPC: 0.801237 (Simulation time: 4 hr 12 min 17 sec) 
Heartbeat CPU 0 instructions: 1650000003 cycles: 1560510021 heartbeat IPC: 1.59854 cumulative IPC: 0.804727 (Simulation time: 4 hr 13 min 17 sec) 
Heartbeat CPU 0 instructions: 1660000003 cycles: 1567851749 heartbeat IPC: 1.36208 cumulative IPC: 0.807576 (Simulation time: 4 hr 14 min 21 sec) 
Heartbeat CPU 0 instructions: 1670000004 cycles: 1581953648 heartbeat IPC: 0.709124 cumulative IPC: 0.806619 (Simulation time: 4 hr 15 min 47 sec) 
Heartbeat CPU 0 instructions: 1680000003 cycles: 1590416427 heartbeat IPC: 1.18164 cumulative IPC: 0.808794 (Simulation time: 4 hr 17 min 4 sec) 
Heartbeat CPU 0 instructions: 1690000000 cycles: 1597079696 heartbeat IPC: 1.50076 cumulative IPC: 0.81194 (Simulation time: 4 hr 18 min 5 sec) 
Heartbeat CPU 0 instructions: 1700000003 cycles: 1605389458 heartbeat IPC: 1.2034 cumulative IPC: 0.814147 (Simulation time: 4 hr 19 min 11 sec) 
Heartbeat CPU 0 instructions: 1710000001 cycles: 1621011470 heartbeat IPC: 0.640122 cumulative IPC: 0.812322 (Simulation time: 4 hr 20 min 35 sec) 
Heartbeat CPU 0 instructions: 1720000002 cycles: 1629313859 heartbeat IPC: 1.20447 cumulative IPC: 0.814496 (Simulation time: 4 hr 21 min 50 sec) 
Heartbeat CPU 0 instructions: 1730000004 cycles: 1635572677 heartbeat IPC: 1.59775 cumulative IPC: 0.817755 (Simulation time: 4 hr 22 min 51 sec) 
Heartbeat CPU 0 instructions: 1740000001 cycles: 1643046347 heartbeat IPC: 1.33803 cumulative IPC: 0.820327 (Simulation time: 4 hr 23 min 56 sec) 
Heartbeat CPU 0 instructions: 1750000003 cycles: 1658352645 heartbeat IPC: 0.653326 cumulative IPC: 0.818653 (Simulation time: 4 hr 25 min 21 sec) 
Heartbeat CPU 0 instructions: 1760000001 cycles: 1668335549 heartbeat IPC: 1.00171 cumulative IPC: 0.819842 (Simulation time: 4 hr 26 min 29 sec) 
Heartbeat CPU 0 instructions: 1770000000 cycles: 1677180290 heartbeat IPC: 1.13062 cumulative IPC: 0.821621 (Simulation time: 4 hr 27 min 28 sec) 
Heartbeat CPU 0 instructions: 1780000000 cycles: 1686199641 heartbeat IPC: 1.10873 cumulative IPC: 0.823286 (Simulation time: 4 hr 28 min 28 sec) 
Heartbeat CPU 0 instructions: 1790000001 cycles: 1697476627 heartbeat IPC: 0.886762 cumulative IPC: 0.823743 (Simulation time: 4 hr 29 min 41 sec) 
Heartbeat CPU 0 instructions: 1800000000 cycles: 1708222392 heartbeat IPC: 0.930599 cumulative IPC: 0.824471 (Simulation time: 4 hr 30 min 52 sec) 
Heartbeat CPU 0 instructions: 1810000000 cycles: 1718999182 heartbeat IPC: 0.92792 cumulative IPC: 0.825174 (Simulation time: 4 hr 32 min 1 sec) 
Heartbeat CPU 0 instructions: 1820000002 cycles: 1729777217 heartbeat IPC: 0.927813 cumulative IPC: 0.825866 (Simulation time: 4 hr 33 min 11 sec) 
Heartbeat CPU 0 instructions: 1830000003 cycles: 1739985654 heartbeat IPC: 0.979582 cumulative IPC: 0.826841 (Simulation time: 4 hr 34 min 15 sec) 
Heartbeat CPU 0 instructions: 1840000003 cycles: 1748915497 heartbeat IPC: 1.11984 cumulative IPC: 0.828459 (Simulation time: 4 hr 35 min 11 sec) 
Heartbeat CPU 0 instructions: 1850000000 cycles: 1757548572 heartbeat IPC: 1.15834 cumulative IPC: 0.83021 (Simulation time: 4 hr 36 min 5 sec) 
Heartbeat CPU 0 instructions: 1860000000 cycles: 1766482511 heartbeat IPC: 1.11933 cumulative IPC: 0.83179 (Simulation time: 4 hr 37 min 2 sec) 
Heartbeat CPU 0 instructions: 1870000000 cycles: 1775407781 heartbeat IPC: 1.12041 cumulative IPC: 0.833357 (Simulation time: 4 hr 37 min 56 sec) 
Heartbeat CPU 0 instructions: 1880000001 cycles: 1784251134 heartbeat IPC: 1.13079 cumulative IPC: 0.834949 (Simulation time: 4 hr 38 min 52 sec) 
Heartbeat CPU 0 instructions: 1890000003 cycles: 1793051188 heartbeat IPC: 1.13636 cumulative IPC: 0.836545 (Simulation time: 4 hr 39 min 44 sec) 
Heartbeat CPU 0 instructions: 1900000000 cycles: 1801931553 heartbeat IPC: 1.12608 cumulative IPC: 0.838084 (Simulation time: 4 hr 40 min 42 sec) 
Heartbeat CPU 0 instructions: 1910000003 cycles: 1810809058 heartbeat IPC: 1.12644 cumulative IPC: 0.839608 (Simulation time: 4 hr 41 min 34 sec) 
Heartbeat CPU 0 instructions: 1920000003 cycles: 1819606180 heartbeat IPC: 1.13674 cumulative IPC: 0.841157 (Simulation time: 4 hr 42 min 29 sec) 
Heartbeat CPU 0 instructions: 1930000000 cycles: 1828278394 heartbeat IPC: 1.15311 cumulative IPC: 0.842751 (Simulation time: 4 hr 43 min 20 sec) 
Heartbeat CPU 0 instructions: 1940000001 cycles: 1837444997 heartbeat IPC: 1.09092 cumulative IPC: 0.844085 (Simulation time: 4 hr 44 min 16 sec) 
Heartbeat CPU 0 instructions: 1950000002 cycles: 1846076857 heartbeat IPC: 1.1585 cumulative IPC: 0.845667 (Simulation time: 4 hr 45 min 8 sec) 
Heartbeat CPU 0 instructions: 1960000001 cycles: 1855145493 heartbeat IPC: 1.1027 cumulative IPC: 0.84702 (Simulation time: 4 hr 46 min 2 sec) 
Heartbeat CPU 0 instructions: 1970000001 cycles: 1863978657 heartbeat IPC: 1.1321 cumulative IPC: 0.848473 (Simulation time: 4 hr 46 min 57 sec) 
Heartbeat CPU 0 instructions: 1980000004 cycles: 1872932164 heartbeat IPC: 1.11688 cumulative IPC: 0.849853 (Simulation time: 4 hr 47 min 49 sec) 
Heartbeat CPU 0 instructions: 1990000004 cycles: 1881881171 heartbeat IPC: 1.11744 cumulative IPC: 0.851221 (Simulation time: 4 hr 48 min 43 sec) 
*** Reached end of trace: traces/621.wrf_s-575B.champsimtrace.xz
Heartbeat CPU 0 instructions: 2000000002 cycles: 1890679540 heartbeat IPC: 1.13657 cumulative IPC: 0.852648 (Simulation time: 4 hr 49 min 36 sec) 
Finished CPU 0 instructions: 1500000001 cycles: 1759224922 cumulative IPC: 0.852648 (Simulation time: 4 hr 49 min 36 sec) 

ChampSim completed all CPUs

Region of Interest Statistics

CPU 0 cumulative IPC: 0.852648 instructions: 1500000001 cycles: 1759224922
cpu0_DTLB TOTAL     ACCESS:  351200516  HIT:  349839369  MISS:    1361147
cpu0_DTLB LOAD      ACCESS:  301380219  HIT:  300355234  MISS:    1024985
cpu0_DTLB RFO       ACCESS:   49820297  HIT:   49484135  MISS:     336162
cpu0_DTLB PREFETCH  ACCESS:          0  HIT:          0  MISS:          0
cpu0_DTLB WRITEBACK ACCESS:          0  HIT:          0  MISS:          0
cpu0_DTLB TRANSLATION ACCESS:          0  HIT:          0  MISS:          0
cpu0_DTLB PREFETCH  REQUESTED:          0  ISSUED:          0  USEFUL:          0  USELESS:          0
cpu0_DTLB AVERAGE MISS LATENCY: 23.4339 cycles
cpu0_ITLB TOTAL     ACCESS:   57280770  HIT:   57279756  MISS:       1014
cpu0_ITLB LOAD      ACCESS:   57280770  HIT:   57279756  MISS:       1014
cpu0_ITLB RFO       ACCESS:          0  HIT:          0  MISS:          0
cpu0_ITLB PREFETCH  ACCESS:          0  HIT:          0  MISS:          0
cpu0_ITLB WRITEBACK ACCESS:          0  HIT:          0  MISS:          0
cpu0_ITLB TRANSLATION ACCESS:          0  HIT:          0  MISS:          0
cpu0_ITLB PREFETCH  REQUESTED:          0  ISSUED:          0  USEFUL:          0  USELESS:          0
cpu0_ITLB AVERAGE MISS LATENCY: 181.902 cycles
cpu0_L1I TOTAL     ACCESS:   44602309  HIT:   44418223  MISS:     184086
cpu0_L1I LOAD      ACCESS:   44602309  HIT:   44418223  MISS:     184086
cpu0_L1I RFO       ACCESS:          0  HIT:          0  MISS:          0
cpu0_L1I PREFETCH  ACCESS:          0  HIT:          0  MISS:          0
cpu0_L1I WRITEBACK ACCESS:          0  HIT:          0  MISS:          0
cpu0_L1I TRANSLATION ACCESS:          0  HIT:          0  MISS:          0
cpu0_L1I PREFETCH  REQUESTED:          0  ISSUED:          0  USEFUL:          0  USELESS:          0
cpu0_L1I AVERAGE MISS LATENCY: 81.4232 cycles
cpu0_STLB TOTAL     ACCESS:    1362161  HIT:    1208244  MISS:     153917
cpu0_STLB LOAD      ACCESS:    1025999  HIT:     906735  MISS:     119264
cpu0_STLB RFO       ACCESS:     336162  HIT:     301509  MISS:      34653
cpu0_STLB PREFETCH  ACCESS:          0  HIT:          0  MISS:          0
cpu0_STLB WRITEBACK ACCESS:          0  HIT:          0  MISS:          0
cpu0_STLB TRANSLATION ACCESS:          0  HIT:          0  MISS:          0
cpu0_STLB PREFETCH  REQUESTED:          0  ISSUED:          0  USEFUL:          0  USELESS:          0
cpu0_STLB AVERAGE MISS LATENCY: 127.526 cycles
cpu0_L1D TOTAL     ACCESS:  349097057  HIT:  325326138  MISS:   23770919
cpu0_L1D LOAD      ACCESS:  273689613  HIT:  254914050  MISS:   18775563
cpu0_L1D RFO       ACCESS:   75272172  HIT:   70294788  MISS:    4977384
cpu0_L1D PREFETCH  ACCESS:          0  HIT:          0  MISS:          0
cpu0_L1D WRITEBACK ACCESS:          0  HIT:          0  MISS:          0
cpu0_L1D TRANSLATION ACCESS:     135272  HIT:     117300  MISS:      17972
cpu0_L1D PREFETCH  REQUESTED:          0  ISSUED:          0  USEFUL:          0  USELESS:          0
cpu0_L1D AVERAGE MISS LATENCY: 410.083 cycles
cpu0_L2C TOTAL     ACCESS:   33169857  HIT:   16997500  MISS:   16172357
cpu0_L2C LOAD      ACCESS:   18958569  HIT:    5829714  MISS:   13128855
cpu0_L2C RFO       ACCESS:    4977095  HIT:    1944059  MISS:    3033036
cpu0_L2C PREFETCH  ACCESS:          0  HIT:          0  MISS:          0
cpu0_L2C WRITEBACK ACCESS:    9216221  HIT:    9207921  MISS:       8300
cpu0_L2C TRANSLATION ACCESS:      17972  HIT:      15806  MISS:       2166
cpu0_L2C PREFETCH  REQUESTED:          0  ISSUED:          0  USEFUL:          0  USELESS:          0
cpu0_L2C AVERAGE MISS LATENCY: 587.023 cycles
LLC TOTAL     ACCESS:   22682757  HIT:    8858216  MISS:   13824541
LLC LOAD      ACCESS:   13128845  HIT:    2053918  MISS:   11074927
LLC RFO       ACCESS:    3033022  HIT:     297356  MISS:    2735666
LLC PREFETCH  ACCESS:          0  HIT:          0  MISS:          0
LLC WRITEBACK ACCESS:    6518724  HIT:    6506066  MISS:      12658
LLC TRANSLATION ACCESS:       2166  HIT:        876  MISS:       1290
LLC PREFETCH  REQUESTED:          0  ISSUED:          0  USEFUL:          0  USELESS:          0
LLC AVERAGE MISS LATENCY: 662.161 cycles
~~~~~~~~~~Reuse Distance Profiler output~~~~~~~~~~
0	42724304	12355936
1	23853136	15205552
2	21028400	15405600
3	19515712	15420320
4	17931040	13985648
5	17574320	14449840
6	15945552	13553440
7	17414416	15142016
8	14317760	12621184
9	12328064	10768704
10	11965696	10750656
11	10928160	9781552
12	8530672	7509824
13	7559904	6633520
14	6058272	5237760
15	6246624	5083616
16	5911264	4940752
17	5702864	4971328
18	6021648	5001296
19	5544064	4473456
20	7114224	5957760
21	6739744	5774816
22	6631216	5724944
23	6067664	5245072
24	5823936	4962448
25	6139696	5319248
26	6270112	5594736
27	4719360	3848544
28	3221296	2531392
29	2641200	2138544
30	2152816	1815088
31	2000448	1624336
32	2022688	1629968
33	1575760	1213632
34	1732272	1274832
35	3049760	2521856
36	2088704	1695664
37	4238960	3693760
38	2091856	1732768
39	1776736	1366768
40	1735712	1386240
41	2667072	1877680
42	1064160	839520
43	1265920	956400
44	1086176	821232
45	1171424	870400
46	1200416	906272
47	1003696	722576
48	1113120	815552
49	1355344	934416
50	801712	595872
51	633440	494064
52	688384	555856
53	687696	537840
54	734624	593536
55	746496	591344
56	717024	582224
57	1381184	1039728
58	834720	597792
59	908432	670288
60	986912	829792
61	716832	595472
62	588624	488624
63	621584	549728
64	1682496	1350736
66	1168496	926880
68	1859968	1512864
70	1254688	1006224
72	827888	670304
74	722176	621984
76	740000	653904
78	1025008	919248
80	879440	798288
82	701408	615536
84	475840	398528
86	426736	352992
88	344480	281296
90	287376	239728
92	265968	228896
94	323920	276736
96	274112	242032
98	289312	251872
100	278240	229744
102	235872	197696
104	168176	146144
106	156096	136192
108	160304	144160
110	188752	170048
112	153232	134304
114	271296	250560
116	221504	197568
118	196416	166512
120	211184	178912
122	215968	186464
124	182784	159744
126	188800	162800
128	335312	285296
132	792544	249840
136	301856	227264
140	285680	248224
144	279520	245824
148	267424	231520
152	272192	242128
156	236352	213504
160	236976	214608
164	251024	214432
168	351120	277040
172	261024	217904
176	193936	164192
180	226688	204480
184	212112	189600
188	211344	194672
192	181168	169888
196	287664	266128
200	214976	194272
204	179472	167920
208	144880	137280
212	139296	132000
216	145184	132048
220	160864	150080
224	153872	141488
228	153664	140416
232	162528	156112
236	163072	156496
240	165296	154736
244	174336	165360
248	137904	129472
252	141904	126304
256	198288	183008
264	228320	216624
272	244016	229120
280	232800	212528
288	201312	186208
296	205120	188816
304	219072	198560
312	241008	229616
320	195760	173120
328	494688	181232
336	579824	258992
344	502032	224720
352	166432	143296
360	107728	93776
368	143168	122720
376	157344	129808
384	138304	116960
392	112448	86384
400	125552	110960
408	208608	195728
416	308064	293776
424	238512	227984
432	201824	189232
440	150624	141488
448	208608	200592
456	235744	230592
464	164032	156784
472	166688	159584
480	170752	165072
488	214000	206640
496	203680	201376
504	158576	153696
512	264832	252720
528	279344	264720
544	204160	197632
560	207184	191776
576	226896	215616
592	210080	203456
608	194768	187168
624	138480	135536
640	95680	91760
656	91168	80208
672	73312	64816
688	76848	71248
704	70512	66352
720	75120	65344
736	74672	63360
752	59264	50624
768	55824	48160
784	44976	35616
800	53008	40560
816	59776	46832
832	100864	77296
848	75664	67152
864	26224	19664
880	37584	26336
896	54384	46480
912	81824	74912
928	85056	81056
944	40528	36144
960	28512	24464
976	26800	20208
992	30688	24496
1008	26336	15456
1024	60160	43056
1056	57472	53216
1088	109520	92464
1120	78608	63072
1152	55952	53136
1184	69536	55264
1216	67360	57264
1248	70192	59328
1280	89120	86224
1312	142848	129680
1344	109376	82704
1376	109888	65648
1408	122912	106848
1440	138656	125088
1472	166032	148512
1504	193856	177888
1536	75840	67120
1568	141568	132688
1600	64048	53856
1632	68464	61680
1664	65360	51536
1696	52576	41248
1728	58896	49408
1760	55200	40624
1792	51536	40128
1824	63760	43648
1856	72928	50160
1888	50816	35136
1920	53936	37632
1952	73760	66144
1984	81568	69168
2016	40976	29680
2048	73648	54784
2112	78736	56496
2176	85520	66880
2240	81264	68928
2304	103136	72256
2368	96176	50656
2432	197024	180192
2496	203200	191552
2560	98880	84768
2624	87920	72096
2688	87216	70256
2752	118608	100944
2816	100368	82144
2880	88624	73120
2944	109856	94816
3008	91504	63920
3072	88768	69968
3136	103072	80176
3200	111456	91360
3264	85760	75104
3328	80592	72688
3392	55728	47504
3456	49456	40048
3520	54304	44768
3584	48432	39888
3648	47488	36016
3712	56736	37952
3776	54880	39744
3840	62592	51312
3904	55376	44496
3968	73360	54528
4032	65632	52896
4096	106672	88720
4224	120352	92912
4352	106384	71840
4480	121312	93120
4608	169328	129760
4736	129296	101296
4864	101888	80880
4992	67600	53088
5120	73536	60048
5248	65696	47184
5376	72816	53776
5504	67120	45200
5632	58336	43120
5760	50784	30048
5888	61904	43664
6016	70880	54944
6144	74944	62800
6272	74496	63312
6400	61120	48448
6528	72528	57008
6656	100336	78416
6784	180400	157664
6912	86480	69104
7040	92672	64160
7168	113680	79392
7296	126576	98944
7424	141200	105904
7552	118176	79536
7680	1053664	445968
7808	644096	361024
7936	128640	68672
8064	101872	70336
8192	108608	76064
8448	137728	77680
8704	94720	53872
8960	106976	70608
9216	96720	66352
9472	78192	48144
9728	55712	31088
9984	59648	33888
10240	61184	34736
10496	53072	28352
10752	53056	27360
11008	56144	33680
11264	51824	29904
11520	50800	26992
11776	54384	30400
12032	59776	38224
12288	61328	44640
12544	65472	49984
12800	70256	50528
13056	64464	43120
13312	61088	39216
13568	57104	35888
13824	74000	43248
14080	72960	54928
14336	91728	73296
14592	204928	186352
14848	68288	47088
15104	43024	28944
15360	69280	56864
15616	57600	46144
15872	51760	42032
16128	38352	28144
16384	76784	58768
16896	436992	421136
17408	243632	227456
17920	56224	41952
18432	65328	51232
18944	115200	101744
19456	122800	107936
19968	45408	28464
20480	106544	90224
20992	60144	45216
21504	32960	23472
22016	27056	18656
22528	29680	21968
23040	21136	13408
23552	20000	12944
24064	121664	115904
24576	513632	507392
25088	20432	15728
25600	20064	15152
26112	93520	87488
26624	269456	262192
27136	116768	109744
27648	18288	11904
28160	16736	9408
28672	14384	6912
29184	47808	40960
29696	23328	15760
30208	12976	6144
30720	21168	13600
31232	19824	13072
31744	12832	5360
32256	11856	4896
32768	25520	14704
33792	29712	22528
34816	46112	38192
35840	32992	25904
36864	37920	30400
37888	33408	26160
38912	33808	24640
39936	22256	13856
40960	22768	13456
41984	20080	12368
43008	19104	12432
44032	18080	11824
45056	17840	11504
46080	16544	10656
47104	15696	10352
48128	18384	11856
49152	17376	10672
50176	16432	10128
51200	16720	10704
52224	142336	136016
53248	120704	114192
54272	16032	8288
55296	18736	8448
56320	17744	8848
57344	21488	13440
58368	18352	11280
59392	15536	8656
60416	13920	8320
61440	12496	8448
62464	20624	17168
63488	11984	8656
64512	11872	8800
65536	25632	19072
67584	29024	22880
69632	31040	25344
71680	26080	20768
73728	37200	34096
75776	47968	43680
77824	53008	48384
79872	38656	33440
81920	36576	30224
83968	43008	36416
86016	44016	37088
88064	46560	39408
90112	40000	33552
92160	56160	50832
94208	59760	54384
96256	66128	60928
98304	25552	20464
100352	25200	20640
102400	23056	19712
104448	24192	21168
106496	25936	22944
108544	25824	22368
110592	25264	22048
112640	22672	20048
114688	21728	19616
116736	24304	21680
118784	27712	24832
120832	31488	29024
122880	31104	28720
124928	30688	27824
126976	33216	31280
129024	25504	24000
131072	41840	38288
135168	45280	39936
139264	60064	52608
143360	51728	43392
147456	42144	33344
151552	35344	27952
155648	33072	29424
159744	38672	35968
163840	34384	32336
167936	43712	40560
172032	35008	31856
176128	40224	37024
180224	23616	21104
184320	21280	18752
188416	21248	19200
192512	20384	18592
196608	20672	18784
200704	23792	20016
204800	23904	18944
208896	26192	20176
212992	29440	19856
217088	34736	21008
221184	34144	18608
225280	34304	19840
229376	34128	21344
233472	52480	39200
237568	37824	24832
241664	37632	23664
245760	35264	21664
249856	32112	19056
253952	31056	19824
258048	32992	20608
262144	57136	34128
270336	52384	30752
278528	46112	32288
286720	54608	36944
294912	77312	54176
303104	48736	30768
311296	42656	27744
319488	41840	23168
327680	37936	25312
335872	33440	27040
344064	34368	27184
352256	40272	30128
360448	49456	39264
368640	31680	23776
376832	31520	26352
385024	32352	24864
393216	42272	26912
401408	37920	25504
409600	56576	45552
417792	69104	59920
425984	71008	62480
434176	63232	52976
442368	50176	37584
450560	40624	33376
458752	41856	34784
466944	44832	37744
475136	45056	40032
483328	52112	43792
491520	50064	40832
499712	44688	33120
507904	44256	31520
516096	41920	30640
524288	91856	63104
540672	97504	61392
557056	66944	55936
573440	58352	50704
589824	50032	45520
606208	52000	47456
622592	55488	51360
638976	55232	51488
655360	48384	44704
671744	51280	47216
688128	48960	44448
704512	48464	43696
720896	50752	43312
737280	69856	56208
753664	51456	42864
770048	60144	55152
786432	59184	54064
802816	84224	79232
819200	108048	103136
835584	104368	99872
851968	97536	93136
868352	82288	78640
884736	80784	78912
901120	82944	80912
917504	87216	85072
933888	89184	87056
950272	86464	84736
966656	125520	123952
983040	307312	305264
999424	78752	76464
1015808	57840	55968
1032192	62576	60096
1048576	116752	110384
1081344	125568	119168
1114112	164624	157264
1146880	126592	119248
1179648	126432	118656
1212416	105184	96736
1245184	100112	92416
1277952	88544	84048
1310720	81584	77376
1343488	73216	70080
1376256	67504	64224
1409024	53184	49984
1441792	48176	43392
1474560	46672	42288
1507328	46224	39696
1540096	48784	40224
1572864	36160	30832
1605632	37680	33488
1638400	46192	34480
1671168	40720	33760
1703936	40960	38432
1736704	32272	30752
1769472	31200	29408
1802240	32336	30832
1835008	32720	31168
1867776	36320	34800
1900544	35136	33552
1933312	35152	33808
1966080	36848	35280
1998848	31840	30400
2031616	30096	28240
2064384	28704	26256
2097152	66624	62816
2162688	68592	64832
2228224	86704	82800
2293760	104304	99440
2359296	112304	108720
2424832	144448	140144
2490368	56864	50416
2555904	32848	27120
2621440	32496	25520
2686976	33088	26736
2752512	37696	31664
2818048	41360	34064
2883584	37408	30240
2949120	37344	29312
3014656	35040	27904
3080192	37264	28720
3145728	37744	28656
3211264	46976	38912
3276800	59504	50432
3342336	38400	29200
3407872	61408	43248
3473408	69056	46912
3538944	52288	47104
3604480	56960	51872
3670016	204752	142112
3735552	82688	56640
3801088	113680	106592
3866624	133008	126400
3932160	24768	20528
3997696	36480	30976
4063232	37216	31520
4128768	40176	32768
4194304	71072	48224
4325376	74688	47424
4456448	90496	42048
4587520	138560	92512
4718592	237232	172464
4849664	116208	88048
4980736	122816	85664
5111808	109808	94176
5242880	93376	79248
5373952	48912	41024
5505024	47296	39984
5636096	44432	39792
5767168	25312	22768
5898240	22624	19680
6029312	419088	413904
6160384	279344	273184
6291456	20512	16384
6422528	43840	34848
6553600	20192	15216
6684672	43600	39712
6815744	17840	14032
6946816	27664	22688
7077888	39792	36256
7208960	26416	22992
7340032	33024	28544
7471104	41264	36880
7602176	30352	26672
7733248	31088	27568
7864320	36208	32608
7995392	30832	26096
8126464	20336	16864
8257536	21936	18096
8388608	63424	52832
8650752	75328	68400
8912896	31648	23680
9175040	59680	59328
9437184	17552	16304
9699328	23024	22976
9961472	94576	93664
10223616	37168	36576
10485760	67024	46336
10747904	144992	89344
11010048	32304	31504
11272192	40576	40464
11534336	22912	21424
11796480	31424	30048
12058624	15808	13808
12320768	9808	9648
12582912	7616	6496
12845056	16208	16096
13107200	14352	13456
13369344	20928	20800
13631488	4320	3312
13893632	12864	12528
14155776	9600	7968
14417920	4352	4304
14680064	22864	21920
14942208	34800	34768
15204352	48544	47072
15466496	19504	19344
15728640	20160	19216
15990784	13120	12800
16252928	13696	13264
16515072	10528	10016
16777216	48032	40224
17301504	39200	36720
17825792	47536	39056
18350080	18032	16320
18874368	49392	44912
19398656	28608	21568
19922944	20704	18752
20447232	14480	9024
20971520	13280	8080
21495808	13968	11872
22020096	21824	19920
22544384	11824	9824
23068672	14704	12272
23592960	43344	36480
24117248	53008	40704
24641536	19232	7760
25165824	14144	12272
25690112	38048	14384
26214400	131536	21776
26738688	25552	7504
27262976	23952	15584
27787264	21232	10368
28311552	22032	13568
28835840	40016	32928
29360128	39072	19296
29884416	14384	5024
30408704	27632	4976
30932992	33104	6064
31457280	61872	7904
31981568	16800	7952
32505856	27984	21472
33030144	24304	17920
33554432	36000	24384
34603008	28480	17072
35651584	32656	9648
36700160	19072	4096
37748736	7856	2240
38797312	4752	4112
39845888	38432	11536
40894464	22752	5088
41943040	25056	10480
42991616	37040	14400
44040192	16912	8016
45088768	17808	14304
46137344	19648	19040
47185920	19680	12144
48234496	24144	4400
49283072	12672	11472
50331648	5968	3632
51380224	8432	6784
52428800	48544	11792
53477376	27760	18384
54525952	20240	11488
55574528	42864	15664
56623104	27632	24944
57671680	28240	6272
58720256	20496	5312
59768832	20512	11808
60817408	27200	8400
61865984	44416	30608
62914560	15536	12864
63963136	17040	10192
65011712	53712	28512
66060288	220960	197600
67108864	91840	90640
69206016	40368	39424
71303168	28656	19440
73400320	6624	3200
75497472	20080	20048
77594624	5456	5424
79691776	176	176
81788928	128	112
83886080	96	96
85983232	11456	2416
88080384	6048	6048
90177536	240	240
92274688	0	0
94371840	16	0
96468992	32	32
98566144	7152	7152
100663296	1664	1664
102760448	0	0
104857600	144	0
106954752	4432	4256
109051904	4224	4224
111149056	0	0
113246208	0	0
115343360	32	16
117440512	16	16
119537664	0	0
121634816	336	0
123731968	0	0
125829120	0	0
127926272	176	176
130023424	0	0
132120576	0	0
134217728	0	0
138412032	208	208
142606336	0	0
146800640	0	0
150994944	816	0
155189248	0	0
159383552	0	0
163577856	0	0
167772160	0	0
171966464	0	0
176160768	0	0
180355072	0	0
184549376	0	0
188743680	0	0
192937984	0	0
197132288	5760	0
201326592	8576	0
205520896	784	0
209715200	0	0
213909504	0	0
218103808	0	0
222298112	0	0
226492416	0	0
230686720	0	0
234881024	0	0
239075328	0	0
243269632	0	0
247463936	0	0
251658240	128	0
255852544	2176	0
260046848	11968	16
264241152	7872	656
268435456	6944	240
276824064	7472	192
285212672	8416	208
293601280	7744	256
301989888	1136	64
310378496	1456	48
318767104	48	0
327155712	0	0
335544320	48	0
343932928	640	32
352321536	144	0
360710144	0	0
369098752	0	0
377487360	0	0
385875968	0	0
394264576	0	0
402653184	0	0
411041792	0	0
419430400	0	0
427819008	0	0
436207616	0	0
444596224	0	0
452984832	0	0
461373440	0	0
469762048	0	0
478150656	0	0
486539264	0	0
494927872	0	0
503316480	0	0
511705088	0	0
520093696	0	0
528482304	0	0
536870912	0	0
553648128	0	0
570425344	0	0
587202560	0	0
603979776	0	0
620756992	0	0
637534208	0	0
654311424	0	0
671088640	0	0
687865856	0	0
704643072	0	0
721420288	0	0
738197504	0	0
754974720	0	0
771751936	0	0
788529152	0	0
805306368	0	0
822083584	0	0
838860800	0	0
855638016	0	0
872415232	0	0
889192448	0	0
905969664	0	0
922746880	0	0
939524096	0	0
956301312	0	0
973078528	0	0
989855744	0	0
1006632960	0	0
1023410176	0	0
1040187392	0	0
1056964608	0	0
1073741824	0	0
1107296256	0	0
1140850688	0	0
1174405120	0	0
1207959552	0	0
1241513984	0	0
1275068416	0	0
1308622848	0	0
1342177280	0	0
1375731712	0	0
1409286144	0	0
1442840576	0	0
1476395008	0	0
1509949440	0	0
1543503872	0	0
1577058304	0	0
1610612736	0	0
1644167168	0	0
1677721600	0	0
1711276032	0	0
1744830464	0	0
1778384896	0	0
1811939328	0	0
1845493760	0	0
1879048192	0	0
1912602624	0	0
1946157056	0	0
1979711488	0	0
2013265920	0	0
2046820352	0	0
2080374784	0	0
2113929216	0	0
2147483648	0	0
2214592512	0	0
2281701376	0	0
2348810240	0	0
2415919104	0	0
2483027968	0	0
2550136832	0	0
2617245696	0	0
2684354560	0	0
2751463424	0	0
2818572288	0	0
2885681152	0	0
2952790016	0	0
3019898880	0	0
3087007744	0	0
3154116608	0	0
3221225472	0	0
3288334336	0	0
3355443200	0	0
3422552064	0	0
3489660928	0	0
3556769792	0	0
3623878656	0	0
3690987520	0	0
3758096384	0	0
3825205248	0	0
3892314112	0	0
3959422976	0	0
4026531840	0	0
4093640704	0	0
4160749568	0	0
4227858432	0	0
~~~~~~~~~~Reuse Distance Profiler output end~~~~~~~~~~

DRAM Statistics
 CHANNEL 0
 RQ ROW_BUFFER_HIT:    1442695  ROW_BUFFER_MISS:   12362323
 DBUS AVG_CONGESTED_CYCLE:    3.95713
 WQ ROW_BUFFER_HIT:     429647  ROW_BUFFER_MISS:    5018209  FULL:         99


CPU 0 Branch Prediction Accuracy: 95.2449% MPKI: 3.47514 Average ROB Occupancy at Mispredict: 196.546
Branch type MPKI
BRANCH_DIRECT_JUMP: 0.000174
BRANCH_INDIRECT: 1e-05
BRANCH_CONDITIONAL: 3.47365
BRANCH_DIRECT_CALL: 0.001156
BRANCH_INDIRECT_CALL: 0
BRANCH_RETURN: 0.000150667

