
*** ChampSim Multicore Out-of-Order Simulator ***

Warmup Instructions: 500000000
Simulation Instructions: 1500000000
Number of CPUs: 1
Off-chip DRAM Size: 4 GiB Channels: 1 Width: 64-bit Data Rate: 3200 MT/s

VirtualMemory physical capacity: 8588881920 num_ppages: 2096895
VirtualMemory page size: 4096 log2_page_size: 12

CPU 0 runs traces/621.wrf_s-6673B.champsimtrace.xz
CPU 0 Bimodal branch predictor
Basic BTB sets: 1024 ways: 8 indirect buffer size: 4096 RAS size: 64
Initializing LRU.
Initializing LRU.
Initializing LRU.
Initializing LRU.
Initializing rdLRU.
Initializing LRU.
Initializing LRU.
Heartbeat CPU 0 instructions: 10000003 cycles: 3923315 heartbeat IPC: 2.54887 cumulative IPC: 2.54887 (Simulation time: 0 hr 1 min 43 sec) 
Heartbeat CPU 0 instructions: 20000003 cycles: 6757053 heartbeat IPC: 3.52891 cumulative IPC: 2.95987 (Simulation time: 0 hr 2 min 28 sec) 
Heartbeat CPU 0 instructions: 30000000 cycles: 9428051 heartbeat IPC: 3.74392 cumulative IPC: 3.18199 (Simulation time: 0 hr 3 min 4 sec) 
Heartbeat CPU 0 instructions: 40000002 cycles: 12174704 heartbeat IPC: 3.6408 cumulative IPC: 3.2855 (Simulation time: 0 hr 3 min 46 sec) 
Heartbeat CPU 0 instructions: 50000003 cycles: 15002878 heartbeat IPC: 3.53585 cumulative IPC: 3.33269 (Simulation time: 0 hr 4 min 26 sec) 
Heartbeat CPU 0 instructions: 60000000 cycles: 18556584 heartbeat IPC: 2.81396 cumulative IPC: 3.23335 (Simulation time: 0 hr 5 min 41 sec) 
Heartbeat CPU 0 instructions: 70000000 cycles: 21718407 heartbeat IPC: 3.16273 cumulative IPC: 3.22307 (Simulation time: 0 hr 6 min 46 sec) 
Heartbeat CPU 0 instructions: 80000003 cycles: 24910410 heartbeat IPC: 3.13283 cumulative IPC: 3.21151 (Simulation time: 0 hr 7 min 45 sec) 
Heartbeat CPU 0 instructions: 90000004 cycles: 28341834 heartbeat IPC: 2.91424 cumulative IPC: 3.17552 (Simulation time: 0 hr 8 min 58 sec) 
Heartbeat CPU 0 instructions: 100000000 cycles: 31457650 heartbeat IPC: 3.20943 cumulative IPC: 3.17888 (Simulation time: 0 hr 10 min 1 sec) 
Heartbeat CPU 0 instructions: 110000004 cycles: 34963429 heartbeat IPC: 2.85243 cumulative IPC: 3.14614 (Simulation time: 0 hr 11 min 6 sec) 
Heartbeat CPU 0 instructions: 120000002 cycles: 38329313 heartbeat IPC: 2.97099 cumulative IPC: 3.13076 (Simulation time: 0 hr 12 min 7 sec) 
Heartbeat CPU 0 instructions: 130000003 cycles: 41815564 heartbeat IPC: 2.86841 cumulative IPC: 3.10889 (Simulation time: 0 hr 13 min 15 sec) 
Heartbeat CPU 0 instructions: 140000002 cycles: 45209197 heartbeat IPC: 2.94669 cumulative IPC: 3.09671 (Simulation time: 0 hr 14 min 39 sec) 
Heartbeat CPU 0 instructions: 150000003 cycles: 48639038 heartbeat IPC: 2.91559 cumulative IPC: 3.08394 (Simulation time: 0 hr 15 min 56 sec) 
Heartbeat CPU 0 instructions: 160000003 cycles: 52099243 heartbeat IPC: 2.89 cumulative IPC: 3.07106 (Simulation time: 0 hr 17 min 21 sec) 
Heartbeat CPU 0 instructions: 170000004 cycles: 55480663 heartbeat IPC: 2.95734 cumulative IPC: 3.06413 (Simulation time: 0 hr 18 min 46 sec) 
Heartbeat CPU 0 instructions: 180000001 cycles: 58971383 heartbeat IPC: 2.86474 cumulative IPC: 3.05233 (Simulation time: 0 hr 20 min 4 sec) 
Heartbeat CPU 0 instructions: 190000002 cycles: 61843352 heartbeat IPC: 3.48193 cumulative IPC: 3.07228 (Simulation time: 0 hr 20 min 44 sec) 
Heartbeat CPU 0 instructions: 200000001 cycles: 64402969 heartbeat IPC: 3.90683 cumulative IPC: 3.10545 (Simulation time: 0 hr 21 min 1 sec) 
Heartbeat CPU 0 instructions: 210000001 cycles: 66962451 heartbeat IPC: 3.90704 cumulative IPC: 3.13609 (Simulation time: 0 hr 21 min 18 sec) 
Heartbeat CPU 0 instructions: 220000000 cycles: 69526240 heartbeat IPC: 3.90048 cumulative IPC: 3.16427 (Simulation time: 0 hr 21 min 37 sec) 
Heartbeat CPU 0 instructions: 230000003 cycles: 72083008 heartbeat IPC: 3.91119 cumulative IPC: 3.19077 (Simulation time: 0 hr 22 min 23 sec) 
Heartbeat CPU 0 instructions: 240000002 cycles: 75261544 heartbeat IPC: 3.1461 cumulative IPC: 3.18888 (Simulation time: 0 hr 23 min 20 sec) 
Heartbeat CPU 0 instructions: 250000001 cycles: 79001888 heartbeat IPC: 2.67355 cumulative IPC: 3.16448 (Simulation time: 0 hr 24 min 19 sec) 
Heartbeat CPU 0 instructions: 260000000 cycles: 82767019 heartbeat IPC: 2.65595 cumulative IPC: 3.14135 (Simulation time: 0 hr 25 min 37 sec) 
Heartbeat CPU 0 instructions: 270000002 cycles: 86446102 heartbeat IPC: 2.71807 cumulative IPC: 3.12333 (Simulation time: 0 hr 26 min 41 sec) 
Heartbeat CPU 0 instructions: 280000004 cycles: 89936096 heartbeat IPC: 2.86533 cumulative IPC: 3.11332 (Simulation time: 0 hr 27 min 36 sec) 
Heartbeat CPU 0 instructions: 290000001 cycles: 93516178 heartbeat IPC: 2.79323 cumulative IPC: 3.10107 (Simulation time: 0 hr 28 min 28 sec) 
Heartbeat CPU 0 instructions: 300000000 cycles: 96928381 heartbeat IPC: 2.93066 cumulative IPC: 3.09507 (Simulation time: 0 hr 29 min 15 sec) 
Heartbeat CPU 0 instructions: 310000001 cycles: 100496879 heartbeat IPC: 2.8023 cumulative IPC: 3.08467 (Simulation time: 0 hr 30 min 9 sec) 
Heartbeat CPU 0 instructions: 320000001 cycles: 104407040 heartbeat IPC: 2.55744 cumulative IPC: 3.06493 (Simulation time: 0 hr 31 min 21 sec) 
Heartbeat CPU 0 instructions: 330000002 cycles: 107253162 heartbeat IPC: 3.51355 cumulative IPC: 3.07683 (Simulation time: 0 hr 32 min 16 sec) 
Heartbeat CPU 0 instructions: 340000002 cycles: 109911755 heartbeat IPC: 3.76139 cumulative IPC: 3.09339 (Simulation time: 0 hr 33 min 14 sec) 
Heartbeat CPU 0 instructions: 350000003 cycles: 112658423 heartbeat IPC: 3.64078 cumulative IPC: 3.10674 (Simulation time: 0 hr 34 min 7 sec) 
Heartbeat CPU 0 instructions: 360000002 cycles: 115510760 heartbeat IPC: 3.5059 cumulative IPC: 3.11659 (Simulation time: 0 hr 35 min 3 sec) 
Heartbeat CPU 0 instructions: 370000000 cycles: 119060841 heartbeat IPC: 2.81684 cumulative IPC: 3.10765 (Simulation time: 0 hr 36 min 1 sec) 
Heartbeat CPU 0 instructions: 380000002 cycles: 122204869 heartbeat IPC: 3.18063 cumulative IPC: 3.10953 (Simulation time: 0 hr 37 min 3 sec) 
Heartbeat CPU 0 instructions: 390000000 cycles: 125426806 heartbeat IPC: 3.10372 cumulative IPC: 3.10938 (Simulation time: 0 hr 38 min 16 sec) 
Heartbeat CPU 0 instructions: 400000003 cycles: 128844599 heartbeat IPC: 2.92587 cumulative IPC: 3.10452 (Simulation time: 0 hr 39 min 28 sec) 
Heartbeat CPU 0 instructions: 410000001 cycles: 131705766 heartbeat IPC: 3.49508 cumulative IPC: 3.113 (Simulation time: 0 hr 40 min 21 sec) 
Heartbeat CPU 0 instructions: 420000004 cycles: 135276016 heartbeat IPC: 2.80093 cumulative IPC: 3.10476 (Simulation time: 0 hr 41 min 12 sec) 
Heartbeat CPU 0 instructions: 430000000 cycles: 138566235 heartbeat IPC: 3.03931 cumulative IPC: 3.10321 (Simulation time: 0 hr 41 min 59 sec) 
Heartbeat CPU 0 instructions: 440000003 cycles: 141504104 heartbeat IPC: 3.40383 cumulative IPC: 3.10945 (Simulation time: 0 hr 42 min 40 sec) 
Heartbeat CPU 0 instructions: 450000004 cycles: 145041191 heartbeat IPC: 2.82719 cumulative IPC: 3.10257 (Simulation time: 0 hr 43 min 30 sec) 
Heartbeat CPU 0 instructions: 460000002 cycles: 148151678 heartbeat IPC: 3.21493 cumulative IPC: 3.10493 (Simulation time: 0 hr 44 min 16 sec) 
Heartbeat CPU 0 instructions: 470000003 cycles: 151255609 heartbeat IPC: 3.22172 cumulative IPC: 3.10732 (Simulation time: 0 hr 45 min 0 sec) 
Heartbeat CPU 0 instructions: 480000004 cycles: 154940103 heartbeat IPC: 2.71408 cumulative IPC: 3.09797 (Simulation time: 0 hr 45 min 51 sec) 
Heartbeat CPU 0 instructions: 490000000 cycles: 158822325 heartbeat IPC: 2.57584 cumulative IPC: 3.08521 (Simulation time: 0 hr 46 min 45 sec) 
Heartbeat CPU 0 instructions: 500000002 cycles: 162499170 heartbeat IPC: 2.71972 cumulative IPC: 3.07694 (Simulation time: 0 hr 47 min 35 sec) 

Warmup complete CPU 0 instructions: 500000002 cycles: 162499170 (Simulation time: 0 hr 47 min 35 sec) 

Heartbeat CPU 0 instructions: 510000001 cycles: 174757354 heartbeat IPC: 0.815781 cumulative IPC: 0.815781 (Simulation time: 0 hr 49 min 19 sec) 
Heartbeat CPU 0 instructions: 520000000 cycles: 181434509 heartbeat IPC: 1.49764 cumulative IPC: 1.05623 (Simulation time: 0 hr 50 min 27 sec) 
Heartbeat CPU 0 instructions: 530000000 cycles: 188463171 heartbeat IPC: 1.42275 cumulative IPC: 1.15545 (Simulation time: 0 hr 51 min 34 sec) 
Heartbeat CPU 0 instructions: 540000002 cycles: 198627151 heartbeat IPC: 0.983867 cumulative IPC: 1.10718 (Simulation time: 0 hr 52 min 43 sec) 
Heartbeat CPU 0 instructions: 550000001 cycles: 212216812 heartbeat IPC: 0.735853 cumulative IPC: 1.00568 (Simulation time: 0 hr 55 min 27 sec) 
Heartbeat CPU 0 instructions: 560000002 cycles: 218987546 heartbeat IPC: 1.47694 cumulative IPC: 1.06217 (Simulation time: 0 hr 56 min 37 sec) 
Heartbeat CPU 0 instructions: 570000000 cycles: 226068913 heartbeat IPC: 1.41216 cumulative IPC: 1.10115 (Simulation time: 0 hr 57 min 44 sec) 
Heartbeat CPU 0 instructions: 580000001 cycles: 236040283 heartbeat IPC: 1.00287 cumulative IPC: 1.08783 (Simulation time: 0 hr 59 min 33 sec) 
Heartbeat CPU 0 instructions: 590000001 cycles: 249264752 heartbeat IPC: 0.756174 cumulative IPC: 1.03728 (Simulation time: 1 hr 1 min 46 sec) 
Heartbeat CPU 0 instructions: 600000001 cycles: 255970258 heartbeat IPC: 1.49131 cumulative IPC: 1.06985 (Simulation time: 1 hr 3 min 23 sec) 
Heartbeat CPU 0 instructions: 610000001 cycles: 263095402 heartbeat IPC: 1.40348 cumulative IPC: 1.09348 (Simulation time: 1 hr 4 min 45 sec) 
Heartbeat CPU 0 instructions: 620000000 cycles: 273749122 heartbeat IPC: 0.938639 cumulative IPC: 1.07865 (Simulation time: 1 hr 6 min 6 sec) 
Heartbeat CPU 0 instructions: 630000003 cycles: 288046048 heartbeat IPC: 0.699451 cumulative IPC: 1.03547 (Simulation time: 1 hr 8 min 49 sec) 
Heartbeat CPU 0 instructions: 640000004 cycles: 294715046 heartbeat IPC: 1.49948 cumulative IPC: 1.05887 (Simulation time: 1 hr 10 min 37 sec) 
Heartbeat CPU 0 instructions: 650000003 cycles: 301867100 heartbeat IPC: 1.3982 cumulative IPC: 1.07629 (Simulation time: 1 hr 12 min 9 sec) 
Heartbeat CPU 0 instructions: 660000001 cycles: 312564293 heartbeat IPC: 0.934824 cumulative IPC: 1.0662 (Simulation time: 1 hr 13 min 37 sec) 
Heartbeat CPU 0 instructions: 670000000 cycles: 327032532 heartbeat IPC: 0.691169 cumulative IPC: 1.03323 (Simulation time: 1 hr 16 min 28 sec) 
Heartbeat CPU 0 instructions: 680000002 cycles: 335875699 heartbeat IPC: 1.13082 cumulative IPC: 1.0382 (Simulation time: 1 hr 17 min 44 sec) 
Heartbeat CPU 0 instructions: 690000001 cycles: 344829179 heartbeat IPC: 1.11688 cumulative IPC: 1.04207 (Simulation time: 1 hr 19 min 21 sec) 
Heartbeat CPU 0 instructions: 700000000 cycles: 353890792 heartbeat IPC: 1.10356 cumulative IPC: 1.04498 (Simulation time: 1 hr 20 min 48 sec) 
Heartbeat CPU 0 instructions: 710000000 cycles: 365957453 heartbeat IPC: 0.82873 cumulative IPC: 1.03215 (Simulation time: 1 hr 22 min 51 sec) 
Heartbeat CPU 0 instructions: 720000001 cycles: 376793787 heartbeat IPC: 0.922821 cumulative IPC: 1.02662 (Simulation time: 1 hr 24 min 38 sec) 
Heartbeat CPU 0 instructions: 730000001 cycles: 387652616 heartbeat IPC: 0.92091 cumulative IPC: 1.02153 (Simulation time: 1 hr 26 min 19 sec) 
Heartbeat CPU 0 instructions: 740000004 cycles: 398908544 heartbeat IPC: 0.888421 cumulative IPC: 1.01519 (Simulation time: 1 hr 28 min 26 sec) 
Heartbeat CPU 0 instructions: 750000002 cycles: 407819601 heartbeat IPC: 1.1222 cumulative IPC: 1.01908 (Simulation time: 1 hr 30 min 5 sec) 
Heartbeat CPU 0 instructions: 760000002 cycles: 416509827 heartbeat IPC: 1.15072 cumulative IPC: 1.02358 (Simulation time: 1 hr 31 min 47 sec) 
Heartbeat CPU 0 instructions: 770000000 cycles: 425431125 heartbeat IPC: 1.12091 cumulative IPC: 1.02688 (Simulation time: 1 hr 33 min 24 sec) 
Heartbeat CPU 0 instructions: 780000000 cycles: 434132665 heartbeat IPC: 1.14922 cumulative IPC: 1.0308 (Simulation time: 1 hr 34 min 43 sec) 
Heartbeat CPU 0 instructions: 790000002 cycles: 443144438 heartbeat IPC: 1.10966 cumulative IPC: 1.03333 (Simulation time: 1 hr 35 min 59 sec) 
Heartbeat CPU 0 instructions: 800000000 cycles: 451846151 heartbeat IPC: 1.1492 cumulative IPC: 1.03682 (Simulation time: 1 hr 36 min 55 sec) 
Heartbeat CPU 0 instructions: 810000003 cycles: 460856905 heartbeat IPC: 1.10979 cumulative IPC: 1.03902 (Simulation time: 1 hr 37 min 50 sec) 
Heartbeat CPU 0 instructions: 820000000 cycles: 469707685 heartbeat IPC: 1.12984 cumulative IPC: 1.04164 (Simulation time: 1 hr 39 min 0 sec) 
Heartbeat CPU 0 instructions: 830000001 cycles: 478575744 heartbeat IPC: 1.12764 cumulative IPC: 1.04405 (Simulation time: 1 hr 40 min 20 sec) 
Heartbeat CPU 0 instructions: 840000004 cycles: 487517212 heartbeat IPC: 1.11838 cumulative IPC: 1.0461 (Simulation time: 1 hr 41 min 49 sec) 
Heartbeat CPU 0 instructions: 850000000 cycles: 496457453 heartbeat IPC: 1.11854 cumulative IPC: 1.04804 (Simulation time: 1 hr 42 min 50 sec) 
Heartbeat CPU 0 instructions: 860000002 cycles: 505539141 heartbeat IPC: 1.10112 cumulative IPC: 1.04944 (Simulation time: 1 hr 44 min 12 sec) 
Heartbeat CPU 0 instructions: 870000000 cycles: 514368843 heartbeat IPC: 1.13254 cumulative IPC: 1.05153 (Simulation time: 1 hr 45 min 7 sec) 
Heartbeat CPU 0 instructions: 880000003 cycles: 523516277 heartbeat IPC: 1.0932 cumulative IPC: 1.05258 (Simulation time: 1 hr 46 min 6 sec) 
Heartbeat CPU 0 instructions: 890000000 cycles: 532446352 heartbeat IPC: 1.11981 cumulative IPC: 1.0542 (Simulation time: 1 hr 47 min 5 sec) 
Heartbeat CPU 0 instructions: 900000004 cycles: 541331572 heartbeat IPC: 1.12547 cumulative IPC: 1.05588 (Simulation time: 1 hr 48 min 1 sec) 
Heartbeat CPU 0 instructions: 910000004 cycles: 550708512 heartbeat IPC: 1.06645 cumulative IPC: 1.05613 (Simulation time: 1 hr 49 min 21 sec) 
Heartbeat CPU 0 instructions: 920000001 cycles: 559585112 heartbeat IPC: 1.12656 cumulative IPC: 1.05771 (Simulation time: 1 hr 51 min 4 sec) 
Heartbeat CPU 0 instructions: 930000001 cycles: 568737303 heartbeat IPC: 1.09263 cumulative IPC: 1.05849 (Simulation time: 1 hr 52 min 38 sec) 
Heartbeat CPU 0 instructions: 940000000 cycles: 577674233 heartbeat IPC: 1.11895 cumulative IPC: 1.05979 (Simulation time: 1 hr 54 min 13 sec) 
Heartbeat CPU 0 instructions: 950000000 cycles: 586692989 heartbeat IPC: 1.1088 cumulative IPC: 1.06084 (Simulation time: 1 hr 55 min 32 sec) 
Heartbeat CPU 0 instructions: 960000001 cycles: 595842846 heartbeat IPC: 1.09291 cumulative IPC: 1.06151 (Simulation time: 1 hr 56 min 51 sec) 
Heartbeat CPU 0 instructions: 970000000 cycles: 604731994 heartbeat IPC: 1.12497 cumulative IPC: 1.06279 (Simulation time: 1 hr 58 min 11 sec) 
Heartbeat CPU 0 instructions: 980000001 cycles: 614038838 heartbeat IPC: 1.07448 cumulative IPC: 1.06303 (Simulation time: 1 hr 59 min 9 sec) 
Heartbeat CPU 0 instructions: 990000000 cycles: 622814733 heartbeat IPC: 1.13948 cumulative IPC: 1.06449 (Simulation time: 2 hr 0 min 4 sec) 
Heartbeat CPU 0 instructions: 1000000004 cycles: 632071316 heartbeat IPC: 1.08031 cumulative IPC: 1.0648 (Simulation time: 2 hr 1 min 3 sec) 
Heartbeat CPU 0 instructions: 1010000004 cycles: 640791280 heartbeat IPC: 1.14679 cumulative IPC: 1.06629 (Simulation time: 2 hr 1 min 58 sec) 
Heartbeat CPU 0 instructions: 1020000003 cycles: 649853182 heartbeat IPC: 1.10352 cumulative IPC: 1.06699 (Simulation time: 2 hr 3 min 6 sec) 
Heartbeat CPU 0 instructions: 1030000000 cycles: 658849262 heartbeat IPC: 1.11159 cumulative IPC: 1.06779 (Simulation time: 2 hr 4 min 16 sec) 
Heartbeat CPU 0 instructions: 1040000003 cycles: 667888701 heartbeat IPC: 1.10626 cumulative IPC: 1.06848 (Simulation time: 2 hr 5 min 16 sec) 
Heartbeat CPU 0 instructions: 1050000002 cycles: 676968914 heartbeat IPC: 1.1013 cumulative IPC: 1.06906 (Simulation time: 2 hr 6 min 23 sec) 
Heartbeat CPU 0 instructions: 1060000001 cycles: 685688857 heartbeat IPC: 1.1468 cumulative IPC: 1.07036 (Simulation time: 2 hr 7 min 24 sec) 
Heartbeat CPU 0 instructions: 1070000000 cycles: 694759974 heartbeat IPC: 1.1024 cumulative IPC: 1.0709 (Simulation time: 2 hr 8 min 24 sec) 
Heartbeat CPU 0 instructions: 1080000001 cycles: 703771270 heartbeat IPC: 1.10972 cumulative IPC: 1.07155 (Simulation time: 2 hr 9 min 31 sec) 
Heartbeat CPU 0 instructions: 1090000000 cycles: 712674592 heartbeat IPC: 1.12318 cumulative IPC: 1.07239 (Simulation time: 2 hr 10 min 34 sec) 
Heartbeat CPU 0 instructions: 1100000000 cycles: 721669510 heartbeat IPC: 1.11174 cumulative IPC: 1.07302 (Simulation time: 2 hr 12 min 9 sec) 
Heartbeat CPU 0 instructions: 1110000002 cycles: 730607491 heartbeat IPC: 1.11882 cumulative IPC: 1.07374 (Simulation time: 2 hr 13 min 52 sec) 
Heartbeat CPU 0 instructions: 1120000001 cycles: 739501239 heartbeat IPC: 1.12439 cumulative IPC: 1.07452 (Simulation time: 2 hr 15 min 18 sec) 
Heartbeat CPU 0 instructions: 1130000004 cycles: 749883608 heartbeat IPC: 0.963172 cumulative IPC: 1.07255 (Simulation time: 2 hr 16 min 53 sec) 
Heartbeat CPU 0 instructions: 1140000000 cycles: 761277912 heartbeat IPC: 0.877631 cumulative IPC: 1.06884 (Simulation time: 2 hr 18 min 42 sec) 
Heartbeat CPU 0 instructions: 1150000002 cycles: 770141954 heartbeat IPC: 1.12815 cumulative IPC: 1.06971 (Simulation time: 2 hr 20 min 22 sec) 
Heartbeat CPU 0 instructions: 1160000001 cycles: 779190371 heartbeat IPC: 1.10517 cumulative IPC: 1.07023 (Simulation time: 2 hr 21 min 27 sec) 
Heartbeat CPU 0 instructions: 1170000002 cycles: 795874220 heartbeat IPC: 0.599382 cumulative IPC: 1.05783 (Simulation time: 2 hr 23 min 24 sec) 
Heartbeat CPU 0 instructions: 1180000000 cycles: 807673061 heartbeat IPC: 0.847541 cumulative IPC: 1.05398 (Simulation time: 2 hr 25 min 0 sec) 
Heartbeat CPU 0 instructions: 1190000004 cycles: 828252152 heartbeat IPC: 0.48593 cumulative IPC: 1.03642 (Simulation time: 2 hr 29 min 5 sec) 
Heartbeat CPU 0 instructions: 1200000001 cycles: 838052163 heartbeat IPC: 1.02041 cumulative IPC: 1.03619 (Simulation time: 2 hr 30 min 44 sec) 
Heartbeat CPU 0 instructions: 1210000002 cycles: 847861072 heartbeat IPC: 1.01948 cumulative IPC: 1.03595 (Simulation time: 2 hr 32 min 13 sec) 
Heartbeat CPU 0 instructions: 1220000002 cycles: 857667269 heartbeat IPC: 1.01976 cumulative IPC: 1.03572 (Simulation time: 2 hr 33 min 27 sec) 
Heartbeat CPU 0 instructions: 1230000003 cycles: 882913726 heartbeat IPC: 0.396095 cumulative IPC: 1.01331 (Simulation time: 2 hr 37 min 3 sec) 
Heartbeat CPU 0 instructions: 1240000004 cycles: 901529399 heartbeat IPC: 0.537182 cumulative IPC: 1.00131 (Simulation time: 2 hr 39 min 43 sec) 
Heartbeat CPU 0 instructions: 1250000001 cycles: 912461528 heartbeat IPC: 0.914735 cumulative IPC: 1.00005 (Simulation time: 2 hr 40 min 31 sec) 
Heartbeat CPU 0 instructions: 1260000000 cycles: 922942319 heartbeat IPC: 0.954126 cumulative IPC: 0.999417 (Simulation time: 2 hr 41 min 15 sec) 
Heartbeat CPU 0 instructions: 1270000000 cycles: 933430185 heartbeat IPC: 0.953483 cumulative IPC: 0.998792 (Simulation time: 2 hr 42 min 2 sec) 
Heartbeat CPU 0 instructions: 1280000001 cycles: 943919632 heartbeat IPC: 0.953339 cumulative IPC: 0.998182 (Simulation time: 2 hr 42 min 45 sec) 
Heartbeat CPU 0 instructions: 1290000000 cycles: 954404759 heartbeat IPC: 0.953732 cumulative IPC: 0.997594 (Simulation time: 2 hr 43 min 29 sec) 
Heartbeat CPU 0 instructions: 1300000001 cycles: 964885801 heartbeat IPC: 0.954104 cumulative IPC: 0.997026 (Simulation time: 2 hr 44 min 12 sec) 
Heartbeat CPU 0 instructions: 1310000000 cycles: 975340819 heartbeat IPC: 0.956478 cumulative IPC: 0.996504 (Simulation time: 2 hr 44 min 55 sec) 
Heartbeat CPU 0 instructions: 1320000000 cycles: 985781843 heartbeat IPC: 0.95776 cumulative IPC: 0.996013 (Simulation time: 2 hr 45 min 38 sec) 
Heartbeat CPU 0 instructions: 1330000004 cycles: 996197269 heartbeat IPC: 0.960115 cumulative IPC: 0.995564 (Simulation time: 2 hr 46 min 25 sec) 
Heartbeat CPU 0 instructions: 1340000000 cycles: 1006586065 heartbeat IPC: 0.962575 cumulative IPC: 0.995158 (Simulation time: 2 hr 47 min 10 sec) 
Heartbeat CPU 0 instructions: 1350000000 cycles: 1016939104 heartbeat IPC: 0.9659 cumulative IPC: 0.994804 (Simulation time: 2 hr 47 min 55 sec) 
Heartbeat CPU 0 instructions: 1360000001 cycles: 1027259074 heartbeat IPC: 0.968995 cumulative IPC: 0.994496 (Simulation time: 2 hr 48 min 40 sec) 
Heartbeat CPU 0 instructions: 1370000003 cycles: 1037592813 heartbeat IPC: 0.967704 cumulative IPC: 0.994179 (Simulation time: 2 hr 49 min 25 sec) 
Heartbeat CPU 0 instructions: 1380000002 cycles: 1047918815 heartbeat IPC: 0.968429 cumulative IPC: 0.993879 (Simulation time: 2 hr 50 min 11 sec) 
Heartbeat CPU 0 instructions: 1390000000 cycles: 1058243437 heartbeat IPC: 0.968558 cumulative IPC: 0.993587 (Simulation time: 2 hr 51 min 5 sec) 
Heartbeat CPU 0 instructions: 1400000000 cycles: 1068589007 heartbeat IPC: 0.966597 cumulative IPC: 0.993279 (Simulation time: 2 hr 51 min 58 sec) 
Heartbeat CPU 0 instructions: 1410000003 cycles: 1078930043 heartbeat IPC: 0.967021 cumulative IPC: 0.992983 (Simulation time: 2 hr 53 min 13 sec) 
Heartbeat CPU 0 instructions: 1420000000 cycles: 1089289107 heartbeat IPC: 0.965338 cumulative IPC: 0.992674 (Simulation time: 2 hr 54 min 1 sec) 
Heartbeat CPU 0 instructions: 1430000002 cycles: 1099647662 heartbeat IPC: 0.965386 cumulative IPC: 0.992372 (Simulation time: 2 hr 54 min 56 sec) 
Heartbeat CPU 0 instructions: 1440000000 cycles: 1110003039 heartbeat IPC: 0.965682 cumulative IPC: 0.99208 (Simulation time: 2 hr 55 min 51 sec) 
Heartbeat CPU 0 instructions: 1450000001 cycles: 1120351305 heartbeat IPC: 0.966346 cumulative IPC: 0.991802 (Simulation time: 2 hr 56 min 42 sec) 
Heartbeat CPU 0 instructions: 1460000001 cycles: 1130701529 heartbeat IPC: 0.966163 cumulative IPC: 0.991528 (Simulation time: 2 hr 57 min 31 sec) 
Heartbeat CPU 0 instructions: 1470000000 cycles: 1141054242 heartbeat IPC: 0.96593 cumulative IPC: 0.991257 (Simulation time: 2 hr 58 min 19 sec) 
Heartbeat CPU 0 instructions: 1480000000 cycles: 1151408525 heartbeat IPC: 0.965784 cumulative IPC: 0.990991 (Simulation time: 2 hr 59 min 6 sec) 
Heartbeat CPU 0 instructions: 1490000000 cycles: 1161760962 heartbeat IPC: 0.965956 cumulative IPC: 0.990731 (Simulation time: 2 hr 59 min 53 sec) 
Heartbeat CPU 0 instructions: 1500000000 cycles: 1172115298 heartbeat IPC: 0.965779 cumulative IPC: 0.990475 (Simulation time: 3 hr 0 min 40 sec) 
Heartbeat CPU 0 instructions: 1510000000 cycles: 1182466956 heartbeat IPC: 0.966029 cumulative IPC: 0.990227 (Simulation time: 3 hr 1 min 27 sec) 
Heartbeat CPU 0 instructions: 1520000004 cycles: 1192804880 heartbeat IPC: 0.967313 cumulative IPC: 0.989997 (Simulation time: 3 hr 2 min 29 sec) 
Heartbeat CPU 0 instructions: 1530000003 cycles: 1203143690 heartbeat IPC: 0.967229 cumulative IPC: 0.989771 (Simulation time: 3 hr 3 min 16 sec) 
Heartbeat CPU 0 instructions: 1540000000 cycles: 1213473245 heartbeat IPC: 0.968096 cumulative IPC: 0.989558 (Simulation time: 3 hr 4 min 3 sec) 
Heartbeat CPU 0 instructions: 1550000000 cycles: 1223799870 heartbeat IPC: 0.968371 cumulative IPC: 0.989352 (Simulation time: 3 hr 4 min 50 sec) 
Heartbeat CPU 0 instructions: 1560000000 cycles: 1234073496 heartbeat IPC: 0.973366 cumulative IPC: 0.989199 (Simulation time: 3 hr 5 min 38 sec) 
Heartbeat CPU 0 instructions: 1570000001 cycles: 1244367567 heartbeat IPC: 0.971433 cumulative IPC: 0.98903 (Simulation time: 3 hr 6 min 24 sec) 
Heartbeat CPU 0 instructions: 1580000004 cycles: 1254677550 heartbeat IPC: 0.969934 cumulative IPC: 0.988849 (Simulation time: 3 hr 7 min 9 sec) 
Heartbeat CPU 0 instructions: 1590000001 cycles: 1264988287 heartbeat IPC: 0.969862 cumulative IPC: 0.988672 (Simulation time: 3 hr 7 min 54 sec) 
Heartbeat CPU 0 instructions: 1600000000 cycles: 1275288705 heartbeat IPC: 0.970834 cumulative IPC: 0.988507 (Simulation time: 3 hr 8 min 42 sec) 
Heartbeat CPU 0 instructions: 1610000000 cycles: 1285600069 heartbeat IPC: 0.969804 cumulative IPC: 0.988335 (Simulation time: 3 hr 9 min 27 sec) 
Heartbeat CPU 0 instructions: 1620000000 cycles: 1295904356 heartbeat IPC: 0.97047 cumulative IPC: 0.988173 (Simulation time: 3 hr 10 min 13 sec) 
Heartbeat CPU 0 instructions: 1630000000 cycles: 1306222230 heartbeat IPC: 0.969192 cumulative IPC: 0.988001 (Simulation time: 3 hr 10 min 58 sec) 
Heartbeat CPU 0 instructions: 1640000000 cycles: 1316547972 heartbeat IPC: 0.968453 cumulative IPC: 0.987827 (Simulation time: 3 hr 11 min 43 sec) 
Heartbeat CPU 0 instructions: 1650000001 cycles: 1326874262 heartbeat IPC: 0.968402 cumulative IPC: 0.987654 (Simulation time: 3 hr 12 min 28 sec) 
Heartbeat CPU 0 instructions: 1660000000 cycles: 1337218485 heartbeat IPC: 0.966723 cumulative IPC: 0.98747 (Simulation time: 3 hr 13 min 13 sec) 
Heartbeat CPU 0 instructions: 1670000001 cycles: 1347579311 heartbeat IPC: 0.965174 cumulative IPC: 0.987275 (Simulation time: 3 hr 13 min 58 sec) 
Heartbeat CPU 0 instructions: 1680000002 cycles: 1357959308 heartbeat IPC: 0.963391 cumulative IPC: 0.987068 (Simulation time: 3 hr 14 min 43 sec) 
Heartbeat CPU 0 instructions: 1690000000 cycles: 1368349518 heartbeat IPC: 0.962444 cumulative IPC: 0.986855 (Simulation time: 3 hr 15 min 27 sec) 
Heartbeat CPU 0 instructions: 1700000001 cycles: 1378728383 heartbeat IPC: 0.963497 cumulative IPC: 0.986656 (Simulation time: 3 hr 16 min 14 sec) 
Heartbeat CPU 0 instructions: 1710000002 cycles: 1389110801 heartbeat IPC: 0.963167 cumulative IPC: 0.986457 (Simulation time: 3 hr 17 min 2 sec) 
Heartbeat CPU 0 instructions: 1720000003 cycles: 1399495835 heartbeat IPC: 0.962924 cumulative IPC: 0.98626 (Simulation time: 3 hr 17 min 46 sec) 
Heartbeat CPU 0 instructions: 1730000002 cycles: 1409882401 heartbeat IPC: 0.962782 cumulative IPC: 0.986064 (Simulation time: 3 hr 18 min 30 sec) 
Heartbeat CPU 0 instructions: 1740000004 cycles: 1420263115 heartbeat IPC: 0.963325 cumulative IPC: 0.985877 (Simulation time: 3 hr 19 min 14 sec) 
Heartbeat CPU 0 instructions: 1750000000 cycles: 1430646831 heartbeat IPC: 0.963046 cumulative IPC: 0.98569 (Simulation time: 3 hr 19 min 57 sec) 
Heartbeat CPU 0 instructions: 1760000001 cycles: 1441031679 heartbeat IPC: 0.962941 cumulative IPC: 0.985505 (Simulation time: 3 hr 20 min 41 sec) 
Heartbeat CPU 0 instructions: 1770000002 cycles: 1451421231 heartbeat IPC: 0.962506 cumulative IPC: 0.985319 (Simulation time: 3 hr 21 min 24 sec) 
Heartbeat CPU 0 instructions: 1780000003 cycles: 1461806343 heartbeat IPC: 0.962917 cumulative IPC: 0.98514 (Simulation time: 3 hr 22 min 7 sec) 
Heartbeat CPU 0 instructions: 1790000003 cycles: 1472207183 heartbeat IPC: 0.961461 cumulative IPC: 0.984952 (Simulation time: 3 hr 22 min 50 sec) 
Heartbeat CPU 0 instructions: 1800000002 cycles: 1482593874 heartbeat IPC: 0.96277 cumulative IPC: 0.984778 (Simulation time: 3 hr 23 min 34 sec) 
Heartbeat CPU 0 instructions: 1810000000 cycles: 1492979368 heartbeat IPC: 0.962881 cumulative IPC: 0.984607 (Simulation time: 3 hr 24 min 17 sec) 
Heartbeat CPU 0 instructions: 1820000000 cycles: 1503372204 heartbeat IPC: 0.962201 cumulative IPC: 0.984433 (Simulation time: 3 hr 25 min 0 sec) 
Heartbeat CPU 0 instructions: 1830000000 cycles: 1512843646 heartbeat IPC: 1.05581 cumulative IPC: 0.984934 (Simulation time: 3 hr 25 min 49 sec) 
Heartbeat CPU 0 instructions: 1840000002 cycles: 1520295328 heartbeat IPC: 1.34198 cumulative IPC: 0.986893 (Simulation time: 3 hr 26 min 35 sec) 
Heartbeat CPU 0 instructions: 1850000000 cycles: 1528154036 heartbeat IPC: 1.27247 cumulative IPC: 0.988537 (Simulation time: 3 hr 27 min 20 sec) 
Heartbeat CPU 0 instructions: 1860000003 cycles: 1536234162 heartbeat IPC: 1.2376 cumulative IPC: 0.990002 (Simulation time: 3 hr 28 min 4 sec) 
Heartbeat CPU 0 instructions: 1870000000 cycles: 1544407373 heartbeat IPC: 1.22351 cumulative IPC: 0.991383 (Simulation time: 3 hr 28 min 49 sec) 
Heartbeat CPU 0 instructions: 1880000004 cycles: 1552683799 heartbeat IPC: 1.20825 cumulative IPC: 0.992674 (Simulation time: 3 hr 29 min 37 sec) 
Heartbeat CPU 0 instructions: 1890000003 cycles: 1571739462 heartbeat IPC: 0.524778 cumulative IPC: 0.986347 (Simulation time: 3 hr 32 min 13 sec) 
Heartbeat CPU 0 instructions: 1900000003 cycles: 1577883456 heartbeat IPC: 1.62761 cumulative IPC: 0.989131 (Simulation time: 3 hr 33 min 7 sec) 
Heartbeat CPU 0 instructions: 1910000004 cycles: 1583883945 heartbeat IPC: 1.66653 cumulative IPC: 0.99199 (Simulation time: 3 hr 34 min 0 sec) 
Heartbeat CPU 0 instructions: 1920000004 cycles: 1590056144 heartbeat IPC: 1.62017 cumulative IPC: 0.994706 (Simulation time: 3 hr 34 min 52 sec) 
Heartbeat CPU 0 instructions: 1930000002 cycles: 1596117519 heartbeat IPC: 1.64979 cumulative IPC: 0.997476 (Simulation time: 3 hr 35 min 44 sec) 
Heartbeat CPU 0 instructions: 1940000002 cycles: 1602065550 heartbeat IPC: 1.68123 cumulative IPC: 1.0003 (Simulation time: 3 hr 36 min 37 sec) 
Heartbeat CPU 0 instructions: 1950000000 cycles: 1608177509 heartbeat IPC: 1.63614 cumulative IPC: 1.00299 (Simulation time: 3 hr 37 min 29 sec) 
Heartbeat CPU 0 instructions: 1960000000 cycles: 1614164084 heartbeat IPC: 1.6704 cumulative IPC: 1.00574 (Simulation time: 3 hr 38 min 21 sec) 
Heartbeat CPU 0 instructions: 1970000001 cycles: 1620216963 heartbeat IPC: 1.65211 cumulative IPC: 1.00843 (Simulation time: 3 hr 39 min 14 sec) 
Heartbeat CPU 0 instructions: 1980000002 cycles: 1626134487 heartbeat IPC: 1.6899 cumulative IPC: 1.01118 (Simulation time: 3 hr 40 min 7 sec) 
Heartbeat CPU 0 instructions: 1990000001 cycles: 1632081646 heartbeat IPC: 1.68147 cumulative IPC: 1.01389 (Simulation time: 3 hr 41 min 0 sec) 
*** Reached end of trace: traces/621.wrf_s-6673B.champsimtrace.xz
Heartbeat CPU 0 instructions: 2000000002 cycles: 1647728600 heartbeat IPC: 0.639102 cumulative IPC: 1.00994 (Simulation time: 3 hr 43 min 1 sec) 
Finished CPU 0 instructions: 1500000000 cycles: 1485229430 cumulative IPC: 1.00994 (Simulation time: 3 hr 43 min 1 sec) 

ChampSim completed all CPUs

Region of Interest Statistics

CPU 0 cumulative IPC: 1.00994 instructions: 1500000000 cycles: 1485229430
cpu0_DTLB TOTAL     ACCESS:  288969395  HIT:  288235235  MISS:     734160
cpu0_DTLB LOAD      ACCESS:  240141006  HIT:  239610103  MISS:     530903
cpu0_DTLB RFO       ACCESS:   48828389  HIT:   48625132  MISS:     203257
cpu0_DTLB PREFETCH  ACCESS:          0  HIT:          0  MISS:          0
cpu0_DTLB WRITEBACK ACCESS:          0  HIT:          0  MISS:          0
cpu0_DTLB TRANSLATION ACCESS:          0  HIT:          0  MISS:          0
cpu0_DTLB PREFETCH  REQUESTED:          0  ISSUED:          0  USEFUL:          0  USELESS:          0
cpu0_DTLB AVERAGE MISS LATENCY: 18.7214 cycles
cpu0_ITLB TOTAL     ACCESS:   71527291  HIT:   71526795  MISS:        496
cpu0_ITLB LOAD      ACCESS:   71527291  HIT:   71526795  MISS:        496
cpu0_ITLB RFO       ACCESS:          0  HIT:          0  MISS:          0
cpu0_ITLB PREFETCH  ACCESS:          0  HIT:          0  MISS:          0
cpu0_ITLB WRITEBACK ACCESS:          0  HIT:          0  MISS:          0
cpu0_ITLB TRANSLATION ACCESS:          0  HIT:          0  MISS:          0
cpu0_ITLB PREFETCH  REQUESTED:          0  ISSUED:          0  USEFUL:          0  USELESS:          0
cpu0_ITLB AVERAGE MISS LATENCY: 180.139 cycles
cpu0_L1I TOTAL     ACCESS:  146620024  HIT:  145940265  MISS:     679759
cpu0_L1I LOAD      ACCESS:  146620024  HIT:  145940265  MISS:     679759
cpu0_L1I RFO       ACCESS:          0  HIT:          0  MISS:          0
cpu0_L1I PREFETCH  ACCESS:          0  HIT:          0  MISS:          0
cpu0_L1I WRITEBACK ACCESS:          0  HIT:          0  MISS:          0
cpu0_L1I TRANSLATION ACCESS:          0  HIT:          0  MISS:          0
cpu0_L1I PREFETCH  REQUESTED:          0  ISSUED:          0  USEFUL:          0  USELESS:          0
cpu0_L1I AVERAGE MISS LATENCY: 19.5029 cycles
cpu0_STLB TOTAL     ACCESS:     734656  HIT:     697346  MISS:      37310
cpu0_STLB LOAD      ACCESS:     531399  HIT:     508069  MISS:      23330
cpu0_STLB RFO       ACCESS:     203257  HIT:     189277  MISS:      13980
cpu0_STLB PREFETCH  ACCESS:          0  HIT:          0  MISS:          0
cpu0_STLB WRITEBACK ACCESS:          0  HIT:          0  MISS:          0
cpu0_STLB TRANSLATION ACCESS:          0  HIT:          0  MISS:          0
cpu0_STLB PREFETCH  REQUESTED:          0  ISSUED:          0  USEFUL:          0  USELESS:          0
cpu0_STLB AVERAGE MISS LATENCY: 191.697 cycles
cpu0_L1D TOTAL     ACCESS:  315341745  HIT:  308826816  MISS:    6514929
cpu0_L1D LOAD      ACCESS:  234719751  HIT:  230487878  MISS:    4231873
cpu0_L1D RFO       ACCESS:   80588626  HIT:   78309245  MISS:    2279381
cpu0_L1D PREFETCH  ACCESS:          0  HIT:          0  MISS:          0
cpu0_L1D WRITEBACK ACCESS:          0  HIT:          0  MISS:          0
cpu0_L1D TRANSLATION ACCESS:      33368  HIT:      29693  MISS:       3675
cpu0_L1D PREFETCH  REQUESTED:          0  ISSUED:          0  USEFUL:          0  USELESS:          0
cpu0_L1D AVERAGE MISS LATENCY: 298.486 cycles
cpu0_L2C TOTAL     ACCESS:   10350350  HIT:    6569804  MISS:    3780546
cpu0_L2C LOAD      ACCESS:    4911596  HIT:    2458394  MISS:    2453202
cpu0_L2C RFO       ACCESS:    2279374  HIT:     953822  MISS:    1325552
cpu0_L2C PREFETCH  ACCESS:          0  HIT:          0  MISS:          0
cpu0_L2C WRITEBACK ACCESS:    3155705  HIT:    3154755  MISS:        950
cpu0_L2C TRANSLATION ACCESS:       3675  HIT:       2833  MISS:        842
cpu0_L2C PREFETCH  REQUESTED:          0  ISSUED:          0  USEFUL:          0  USELESS:          0
cpu0_L2C AVERAGE MISS LATENCY: 496.794 cycles
LLC TOTAL     ACCESS:    5727096  HIT:    2645489  MISS:    3081607
LLC LOAD      ACCESS:    2453194  HIT:     411761  MISS:    2041433
LLC RFO       ACCESS:    1325547  HIT:     291856  MISS:    1033691
LLC PREFETCH  ACCESS:          0  HIT:          0  MISS:          0
LLC WRITEBACK ACCESS:    1947513  HIT:    1941323  MISS:       6190
LLC TRANSLATION ACCESS:        842  HIT:        549  MISS:        293
LLC PREFETCH  REQUESTED:          0  ISSUED:          0  USEFUL:          0  USELESS:          0
LLC AVERAGE MISS LATENCY: 583.714 cycles
~~~~~~~~~~Reuse Distance Profiler output~~~~~~~~~~
0	53548240	23256208
1	26616928	18088384
2	20485984	14700096
3	21285904	16126544
4	17322496	13915808
5	16434192	13869216
6	13452736	10824960
7	14572048	12248448
8	11834080	9648736
9	11638944	9780160
10	12817360	11016288
11	13242848	11528576
12	11485312	10011056
13	8415808	7415216
14	6843024	5768272
15	5914256	4637248
16	4867504	4004176
17	4846432	4304464
18	6309792	5495888
19	5816384	5140208
20	5164608	4544576
21	5715856	5100576
22	4961376	4362176
23	5928144	5212160
24	5687568	5102080
25	5286816	4725088
26	6538592	5739952
27	5136128	4533408
28	4990848	4336432
29	4018416	3467264
30	2588352	2220880
31	4300656	3623920
32	3581792	3160112
33	1925664	1584656
34	1728096	1334432
35	2517792	1976480
36	1879792	1569344
37	2792816	2414080
38	1818128	1451200
39	1579184	1245040
40	2136272	1715008
41	1166224	954688
42	1485024	1256656
43	1249264	1037856
44	1138432	889472
45	1606208	1229248
46	1543440	1154096
47	1449920	1108368
48	1706256	1207168
49	2692960	1840032
50	944416	627568
51	751728	552400
52	730672	510496
53	850096	597424
54	952208	777264
55	1088944	852720
56	1525232	1242496
57	1209632	879584
58	1044880	823952
59	801936	643504
60	682512	525264
61	1497360	1073296
62	2861008	2070896
63	868016	671280
64	1194672	990896
66	1357568	1174880
68	3211680	2616976
70	2400848	1889904
72	1504624	1318560
74	1486368	1356672
76	1087040	977664
78	949024	874256
80	716080	661696
82	771600	722224
84	1033856	959184
86	2152576	2046800
88	1179488	1029904
90	594128	509696
92	691952	596768
94	599104	513984
96	505040	419376
98	447904	395616
100	436704	388144
102	376704	328768
104	289392	257568
106	243504	209600
108	270416	236224
110	297696	265104
112	328416	298336
114	268944	244400
116	221328	202592
118	251472	229952
120	164256	142256
122	136096	104528
124	151728	119136
126	160848	133056
128	355664	303760
132	816000	377680
136	625600	437104
140	392352	357296
144	400720	373008
148	423248	381024
152	261840	216912
156	204272	171680
160	207840	176352
164	234736	200096
168	232320	193136
172	194176	160592
176	329456	273552
180	284704	246768
184	231872	211248
188	212368	199744
192	178016	163776
196	217776	205584
200	264016	230720
204	209920	186464
208	217808	197040
212	193280	176368
216	146256	130128
220	131568	115984
224	112272	101152
228	110192	102880
232	79536	75408
236	93888	87296
240	120368	113328
244	103808	97200
248	88592	82656
252	92592	80320
256	158288	124208
264	438096	381520
272	301744	173184
280	298432	208608
288	230800	103568
296	313024	113936
304	191216	157936
312	227056	172656
320	204400	167216
328	288944	243280
336	347968	290528
344	292496	263152
352	323456	298960
360	263472	242816
368	270288	243504
376	297024	269760
384	253712	219488
392	109264	91024
400	172912	156352
408	186480	171376
416	397568	388176
424	168208	158768
432	190272	180864
440	53888	50544
448	44016	40688
456	75680	70768
464	92304	89248
472	89648	87072
480	194976	194320
488	231824	229872
496	284000	281040
504	195808	191840
512	461232	449136
528	132896	120144
544	154976	150400
560	118080	104880
576	275392	266640
592	116448	110736
608	70880	67584
624	39728	36096
640	132992	125040
656	40656	35792
672	40896	36576
688	42944	37056
704	47504	37632
720	48224	36160
736	49792	39072
752	45552	35728
768	31888	28000
784	51664	42208
800	92240	82896
816	68528	53872
832	39424	25136
848	23472	14720
864	30256	20256
880	83136	62160
896	41648	23584
912	44384	33056
928	49440	43104
944	32832	27360
960	58784	48912
976	36448	26368
992	47616	39824
1008	57344	48656
1024	73168	54272
1056	47536	38640
1088	69344	47600
1120	92256	71584
1152	74768	67520
1184	54928	46736
1216	48064	37056
1248	44672	36608
1280	39424	33072
1312	79392	73904
1344	141088	121808
1376	143056	79424
1408	116560	79968
1440	102896	88080
1472	116880	94496
1504	441376	397488
1536	83680	63408
1568	93552	89264
1600	54448	45584
1632	65712	61072
1664	37632	33552
1696	49200	45120
1728	50864	44560
1760	37360	33136
1792	45872	39744
1824	35568	25664
1856	72256	46192
1888	62384	50224
1920	44272	36928
1952	48864	42720
1984	54736	50464
2016	26960	22880
2048	49008	38912
2112	40816	32688
2176	37712	29216
2240	39952	30112
2304	73968	55504
2368	89024	42544
2432	74416	46672
2496	276624	254336
2560	86336	69040
2624	67056	55616
2688	71776	54432
2752	79488	61392
2816	118656	75424
2880	97360	61376
2944	225888	198336
3008	132528	118352
3072	103040	93168
3136	49376	40352
3200	57376	44224
3264	53008	38384
3328	69616	52864
3392	77280	64176
3456	77680	68672
3520	62720	56832
3584	39152	33920
3648	36192	31440
3712	27856	24656
3776	27968	24352
3840	28976	25680
3904	26624	23840
3968	25168	21504
4032	35184	25232
4096	64784	48944
4224	96288	77200
4352	78624	61600
4480	71776	57728
4608	78032	63312
4736	55920	43296
4864	72960	53488
4992	69824	46272
5120	75552	55104
5248	88496	65824
5376	66304	50496
5504	36048	26976
5632	32256	25056
5760	28912	20304
5888	30224	21808
6016	33408	25040
6144	45552	36768
6272	34752	26144
6400	33040	24400
6528	30016	21344
6656	24912	18016
6784	45280	36400
6912	56160	46352
7040	43424	32032
7168	48720	36176
7296	44560	32352
7424	49056	35600
7552	41712	29792
7680	37488	28048
7808	55456	39792
7936	38288	31136
8064	35712	27296
8192	80208	68224
8448	39184	28944
8704	41056	31280
8960	76992	67008
9216	42304	31248
9472	74192	64256
9728	51552	34576
9984	51568	37488
10240	68192	51824
10496	160848	151024
10752	57712	46256
11008	32608	24176
11264	34096	24560
11520	25232	17728
11776	31616	22576
12032	31200	20624
12288	33072	20944
12544	36064	21936
12800	34736	22400
13056	35440	20704
13312	34976	22064
13568	36352	22752
13824	52448	40656
14080	54112	39776
14336	49632	35840
14592	37856	29120
14848	37072	28624
15104	32464	24144
15360	31312	22592
15616	31616	21696
15872	23328	15728
16128	25056	14560
16384	44256	30176
16896	38400	24000
17408	96144	86192
17920	40192	31200
18432	43696	33024
18944	42928	31920
19456	47792	33312
19968	44064	28448
20480	46384	29632
20992	68656	41472
21504	90624	60032
22016	58880	29328
22528	56016	36480
23040	46368	34752
23552	39488	31936
24064	24864	18592
24576	18384	11728
25088	69552	63776
25600	217680	212384
26112	14960	9824
26624	242384	237696
27136	11968	7216
27648	28704	23264
28160	86560	79904
28672	74288	66992
29184	115984	107760
29696	14384	8000
30208	16432	8896
30720	16128	9504
31232	21552	15600
31744	13504	7120
32256	13568	7312
32768	26032	14736
33792	76848	70432
34816	39216	34144
35840	32144	26992
36864	37904	32672
37888	20944	15856
38912	24256	19584
39936	18832	11760
40960	21472	12032
41984	19552	10384
43008	20352	11056
44032	18960	9824
45056	25968	17008
46080	17008	8176
47104	17168	8352
48128	16800	7328
49152	15200	7728
50176	15328	8048
51200	31024	21760
52224	59520	51760
53248	169744	164832
54272	12208	8848
55296	10272	7376
56320	9888	7664
57344	10592	8400
58368	9536	7536
59392	9136	7008
60416	8480	6320
61440	8304	6768
62464	8352	6848
63488	54128	52544
64512	8080	6592
65536	14064	11104
67584	18320	13360
69632	18240	12976
71680	17616	12176
73728	22448	18640
75776	29696	26128
77824	26672	24480
79872	22432	20000
81920	20448	17184
83968	22112	16832
86016	24432	18112
88064	22528	17456
90112	17872	13552
92160	20736	17760
94208	24096	21568
96256	23936	20816
98304	26656	24176
100352	27664	24176
102400	23424	19872
104448	20336	17024
106496	18224	14992
108544	17952	14592
110592	19808	14128
112640	27536	18464
114688	37440	27888
116736	31936	21232
118784	28752	20608
120832	36592	30528
122880	26448	22224
124928	25376	22480
126976	31216	28128
129024	26112	22976
131072	39584	34864
135168	42128	38144
139264	62464	58464
143360	62224	58480
147456	50816	46800
151552	48112	44848
155648	44368	41648
159744	41424	39232
163840	34336	32208
167936	25232	21632
172032	17984	15984
176128	17264	15008
180224	16272	14064
184320	18304	12976
188416	18032	12096
192512	18720	14240
196608	18912	14640
200704	17760	13008
204800	18560	12272
208896	24192	17280
212992	28128	19792
217088	25040	16848
221184	20448	12144
225280	23456	13968
229376	19008	12576
233472	25712	15584
237568	22432	13008
241664	20080	14160
245760	21216	15552
249856	23232	17376
253952	22832	17184
258048	22224	16384
262144	41968	23392
270336	51072	30080
278528	56832	37520
286720	49296	33824
294912	30096	18192
303104	31536	19488
311296	41440	24352
319488	52288	22320
327680	49808	21968
335872	45952	26288
344064	42000	25696
352256	42112	23024
360448	30240	14208
368640	29984	13872
376832	31424	14256
385024	26800	15792
393216	23920	14016
401408	21440	14352
409600	28224	20720
417792	60432	50704
425984	45952	36576
434176	32496	21088
442368	31728	18992
450560	36240	18288
458752	38448	16576
466944	36000	14256
475136	37840	14480
483328	28336	12816
491520	21648	14816
499712	22496	13280
507904	21776	14672
516096	25200	13632
524288	46432	27104
540672	86080	69744
557056	50496	39024
573440	35088	32176
589824	32464	30160
606208	30656	27920
622592	33200	29440
638976	30192	26576
655360	31728	27648
671744	32016	26912
688128	30848	26144
704512	32336	27792
720896	36096	27936
737280	44704	27936
753664	31408	25664
770048	28448	24384
786432	28832	21952
802816	25344	23904
819200	18048	17328
835584	26464	24688
851968	21456	19792
868352	23072	21712
884736	25024	23984
901120	25152	23408
917504	24320	22544
933888	25920	24512
950272	23360	22000
966656	36976	35744
983040	38800	37504
999424	38400	37584
1015808	40656	39104
1032192	48576	46384
1048576	90848	81392
1081344	81056	73808
1114112	85344	76112
1146880	95872	84048
1179648	109568	90528
1212416	109680	96480
1245184	110032	96960
1277952	106208	95280
1310720	101040	94816
1343488	85856	80416
1376256	80608	75760
1409024	72064	66048
1441792	69696	65920
1474560	75312	63504
1507328	74256	62464
1540096	82480	69344
1572864	83104	64240
1605632	72448	60064
1638400	72352	55840
1671168	52128	41152
1703936	33664	30768
1736704	32064	31008
1769472	29168	27936
1802240	29696	27056
1835008	27376	26416
1867776	30144	28288
1900544	28432	27520
1933312	20896	19984
1966080	23376	22304
1998848	20432	18848
2031616	21552	20656
2064384	22800	21776
2097152	50512	47632
2162688	59008	56176
2228224	69872	66672
2293760	71680	69344
2359296	68128	66048
2424832	68880	66800
2490368	70880	68672
2555904	45216	42656
2621440	41440	39072
2686976	49792	44784
2752512	40544	37568
2818048	44416	41552
2883584	41920	38352
2949120	34928	31168
3014656	33376	29168
3080192	31488	27456
3145728	28112	23744
3211264	26992	22368
3276800	24400	20688
3342336	36992	32336
3407872	40112	36768
3473408	37728	33728
3538944	36160	32576
3604480	37584	33664
3670016	28016	22304
3735552	22288	17744
3801088	20640	15568
3866624	16944	12432
3932160	17488	13264
3997696	22656	17648
4063232	20480	15568
4128768	30752	14960
4194304	60224	30192
4325376	40784	29520
4456448	51664	41184
4587520	272128	185600
4718592	127760	117664
4849664	53680	46592
4980736	74512	66080
5111808	55904	46976
5242880	40480	34128
5373952	42464	36416
5505024	39120	33088
5636096	36080	30320
5767168	39136	33776
5898240	25312	22016
6029312	29664	25520
6160384	34048	26128
6291456	41680	28592
6422528	38000	24144
6553600	37056	23456
6684672	36864	20992
6815744	35456	18832
6946816	40080	23392
7077888	53168	37040
7208960	46416	30080
7340032	47952	32560
7471104	55168	45680
7602176	49680	41008
7733248	72752	64240
7864320	47168	39504
7995392	22144	16528
8126464	27744	22880
8257536	22160	17680
8388608	24688	19808
8650752	62848	61808
8912896	639968	629856
9175040	55424	49328
9437184	19216	18720
9699328	25040	23728
9961472	67776	66576
10223616	35504	34464
10485760	25264	22704
10747904	154288	98480
11010048	25552	24400
11272192	31792	24112
11534336	28960	22288
11796480	16528	12464
12058624	29632	9424
12320768	9104	7792
12582912	2800	1936
12845056	2896	1408
13107200	1008	752
13369344	13840	12608
13631488	27120	26304
13893632	6336	5408
14155776	9008	7600
14417920	14304	13760
14680064	5664	4624
14942208	5296	4896
15204352	7952	6880
15466496	6752	6752
15728640	15584	14736
15990784	5712	4544
16252928	4848	4736
16515072	4304	3040
16777216	5408	4384
17301504	3760	2896
17825792	5232	3968
18350080	14512	13168
18874368	20384	18752
19398656	16144	14256
19922944	11712	9952
20447232	7456	5888
20971520	19968	18480
21495808	17920	17056
22020096	19008	17312
22544384	13472	11744
23068672	10928	10112
23592960	20608	19328
24117248	18688	10656
24641536	16240	13312
25165824	6512	4096
25690112	7232	4704
26214400	8944	6608
26738688	11040	8384
27262976	8000	5824
27787264	13904	10432
28311552	23824	18928
28835840	14080	6816
29360128	2592	2096
29884416	8784	6960
30408704	7504	1552
30932992	1696	1296
31457280	20784	352
31981568	35216	1488
32505856	5232	1984
33030144	28176	2064
33554432	42992	17760
34603008	19872	10704
35651584	21184	6992
36700160	15200	4224
37748736	7952	2080
38797312	36160	9696
39845888	17280	9600
40894464	8336	3008
41943040	1936	1520
42991616	3424	2816
44040192	12720	5264
45088768	14976	14848
46137344	7392	6912
47185920	5648	5120
48234496	1792	1296
49283072	2256	1872
50331648	3312	2080
51380224	5248	1472
52428800	9216	1616
53477376	31344	2000
54525952	9744	1520
55574528	16176	10160
56623104	4864	4016
57671680	16560	10864
58720256	8896	3280
59768832	6672	4016
60817408	6160	3712
61865984	4432	1600
62914560	3776	1504
63963136	6048	3200
65011712	23328	4320
66060288	15568	4704
67108864	13104	10672
69206016	28064	4464
71303168	4864	3536
73400320	8544	3712
75497472	13856	7632
77594624	7632	6752
79691776	5584	4304
81788928	29712	20672
83886080	9056	7504
85983232	142256	118160
88080384	10832	9952
90177536	23264	22176
92274688	7072	5376
94371840	32112	28416
96468992	17808	12272
98566144	52400	44688
100663296	3920	3712
102760448	1776	1552
104857600	1552	1392
106954752	20304	9120
109051904	12864	7680
111149056	17536	4560
113246208	79968	19136
115343360	12560	672
117440512	1888	1808
119537664	7424	7248
121634816	17120	8016
123731968	20688	3760
125829120	4000	3872
127926272	4400	4160
130023424	11808	11680
132120576	5040	4016
134217728	17840	8304
138412032	9136	9088
142606336	73312	64752
146800640	21632	21632
150994944	0	0
155189248	8768	64
159383552	16	16
163577856	16016	13968
167772160	41456	21056
171966464	7072	64
176160768	25088	32
180355072	0	0
184549376	48	48
188743680	0	0
192937984	32	32
197132288	0	0
201326592	4112	2768
205520896	12528	10720
209715200	69024	32
213909504	16	16
218103808	496	224
222298112	160	48
226492416	288	0
230686720	320	0
234881024	3792	0
239075328	12112	2752
243269632	6992	2592
247463936	0	0
251658240	0	0
255852544	16	16
260046848	576	576
264241152	0	0
268435456	0	0
276824064	0	0
285212672	0	0
293601280	0	0
301989888	0	0
310378496	0	0
318767104	16	16
327155712	0	0
335544320	32	0
343932928	0	0
352321536	0	0
360710144	0	0
369098752	0	0
377487360	0	0
385875968	0	0
394264576	0	0
402653184	0	0
411041792	0	0
419430400	0	0
427819008	0	0
436207616	0	0
444596224	0	0
452984832	0	0
461373440	0	0
469762048	0	0
478150656	0	0
486539264	0	0
494927872	0	0
503316480	0	0
511705088	0	0
520093696	0	0
528482304	0	0
536870912	0	0
553648128	0	0
570425344	0	0
587202560	0	0
603979776	0	0
620756992	0	0
637534208	0	0
654311424	0	0
671088640	0	0
687865856	0	0
704643072	0	0
721420288	0	0
738197504	0	0
754974720	0	0
771751936	0	0
788529152	0	0
805306368	0	0
822083584	0	0
838860800	0	0
855638016	0	0
872415232	0	0
889192448	0	0
905969664	0	0
922746880	0	0
939524096	0	0
956301312	0	0
973078528	0	0
989855744	0	0
1006632960	0	0
1023410176	0	0
1040187392	0	0
1056964608	0	0
1073741824	0	0
1107296256	0	0
1140850688	0	0
1174405120	0	0
1207959552	0	0
1241513984	0	0
1275068416	0	0
1308622848	0	0
1342177280	0	0
1375731712	0	0
1409286144	0	0
1442840576	0	0
1476395008	0	0
1509949440	0	0
1543503872	0	0
1577058304	0	0
1610612736	0	0
1644167168	0	0
1677721600	0	0
1711276032	0	0
1744830464	0	0
1778384896	0	0
1811939328	0	0
1845493760	0	0
1879048192	0	0
1912602624	0	0
1946157056	0	0
1979711488	0	0
2013265920	0	0
2046820352	0	0
2080374784	0	0
2113929216	0	0
2147483648	0	0
2214592512	0	0
2281701376	0	0
2348810240	0	0
2415919104	0	0
2483027968	0	0
2550136832	0	0
2617245696	0	0
2684354560	0	0
2751463424	0	0
2818572288	0	0
2885681152	0	0
2952790016	0	0
3019898880	0	0
3087007744	0	0
3154116608	0	0
3221225472	0	0
3288334336	0	0
3355443200	0	0
3422552064	0	0
3489660928	0	0
3556769792	0	0
3623878656	0	0
3690987520	0	0
3758096384	0	0
3825205248	0	0
3892314112	0	0
3959422976	0	0
4026531840	0	0
4093640704	0	0
4160749568	0	0
4227858432	0	0
~~~~~~~~~~Reuse Distance Profiler output end~~~~~~~~~~

DRAM Statistics
 CHANNEL 0
 RQ ROW_BUFFER_HIT:     302364  ROW_BUFFER_MISS:    2770680
 DBUS AVG_CONGESTED_CYCLE:     3.9685
 WQ ROW_BUFFER_HIT:     145491  ROW_BUFFER_MISS:    1379198  FULL:        604


CPU 0 Branch Prediction Accuracy: 95.7116% MPKI: 4.96108 Average ROB Occupancy at Mispredict: 104.566
Branch type MPKI
BRANCH_DIRECT_JUMP: 0.000264
BRANCH_INDIRECT: 8.6e-05
BRANCH_CONDITIONAL: 4.95809
BRANCH_DIRECT_CALL: 0.00229267
BRANCH_INDIRECT_CALL: 2.66667e-06
BRANCH_RETURN: 0.000343333

