
*** ChampSim Multicore Out-of-Order Simulator ***

Warmup Instructions: 500000000
Simulation Instructions: 1500000000
Number of CPUs: 1
Off-chip DRAM Size: 4 GiB Channels: 1 Width: 64-bit Data Rate: 3200 MT/s

VirtualMemory physical capacity: 8588881920 num_ppages: 2096895
VirtualMemory page size: 4096 log2_page_size: 12

CPU 0 runs traces/623.xalancbmk_s-325B.champsimtrace.xz
CPU 0 Bimodal branch predictor
Basic BTB sets: 1024 ways: 8 indirect buffer size: 4096 RAS size: 64
Initializing LRU.
Initializing LRU.
Initializing LRU.
Initializing LRU.
Initializing rdLRU.
Initializing LRU.
Initializing LRU.
Heartbeat CPU 0 instructions: 10000004 cycles: 2751439 heartbeat IPC: 3.63446 cumulative IPC: 3.63446 (Simulation time: 0 hr 0 min 49 sec) 
Heartbeat CPU 0 instructions: 20000004 cycles: 5529441 heartbeat IPC: 3.59971 cumulative IPC: 3.617 (Simulation time: 0 hr 1 min 52 sec) 
Heartbeat CPU 0 instructions: 30000000 cycles: 8207359 heartbeat IPC: 3.73424 cumulative IPC: 3.65526 (Simulation time: 0 hr 2 min 38 sec) 
Heartbeat CPU 0 instructions: 40000003 cycles: 10937407 heartbeat IPC: 3.66294 cumulative IPC: 3.65717 (Simulation time: 0 hr 3 min 35 sec) 
Heartbeat CPU 0 instructions: 50000003 cycles: 13951285 heartbeat IPC: 3.31798 cumulative IPC: 3.5839 (Simulation time: 0 hr 4 min 49 sec) 
Heartbeat CPU 0 instructions: 60000003 cycles: 17091124 heartbeat IPC: 3.18488 cumulative IPC: 3.51059 (Simulation time: 0 hr 6 min 8 sec) 
Heartbeat CPU 0 instructions: 70000001 cycles: 19973508 heartbeat IPC: 3.46935 cumulative IPC: 3.50464 (Simulation time: 0 hr 7 min 16 sec) 
Heartbeat CPU 0 instructions: 80000003 cycles: 22735104 heartbeat IPC: 3.6211 cumulative IPC: 3.51879 (Simulation time: 0 hr 8 min 5 sec) 
Heartbeat CPU 0 instructions: 90000001 cycles: 25372863 heartbeat IPC: 3.7911 cumulative IPC: 3.5471 (Simulation time: 0 hr 8 min 56 sec) 
Heartbeat CPU 0 instructions: 100000003 cycles: 28065857 heartbeat IPC: 3.71334 cumulative IPC: 3.56305 (Simulation time: 0 hr 9 min 58 sec) 
Heartbeat CPU 0 instructions: 110000004 cycles: 30845688 heartbeat IPC: 3.59734 cumulative IPC: 3.56614 (Simulation time: 0 hr 10 min 50 sec) 
Heartbeat CPU 0 instructions: 120000002 cycles: 33923314 heartbeat IPC: 3.24926 cumulative IPC: 3.53739 (Simulation time: 0 hr 11 min 48 sec) 
Heartbeat CPU 0 instructions: 130000001 cycles: 37070405 heartbeat IPC: 3.17754 cumulative IPC: 3.50684 (Simulation time: 0 hr 13 min 6 sec) 
Heartbeat CPU 0 instructions: 140000000 cycles: 39716394 heartbeat IPC: 3.7793 cumulative IPC: 3.52499 (Simulation time: 0 hr 13 min 48 sec) 
Heartbeat CPU 0 instructions: 150000003 cycles: 42412249 heartbeat IPC: 3.7094 cumulative IPC: 3.53671 (Simulation time: 0 hr 14 min 26 sec) 
Heartbeat CPU 0 instructions: 160000003 cycles: 45393292 heartbeat IPC: 3.35453 cumulative IPC: 3.52475 (Simulation time: 0 hr 15 min 8 sec) 
Heartbeat CPU 0 instructions: 170000002 cycles: 48425092 heartbeat IPC: 3.29837 cumulative IPC: 3.51058 (Simulation time: 0 hr 15 min 55 sec) 
Heartbeat CPU 0 instructions: 180000000 cycles: 51082934 heartbeat IPC: 3.76245 cumulative IPC: 3.52368 (Simulation time: 0 hr 16 min 33 sec) 
Heartbeat CPU 0 instructions: 190000002 cycles: 54082062 heartbeat IPC: 3.3343 cumulative IPC: 3.51318 (Simulation time: 0 hr 17 min 17 sec) 
Heartbeat CPU 0 instructions: 200000001 cycles: 56727833 heartbeat IPC: 3.77962 cumulative IPC: 3.52561 (Simulation time: 0 hr 17 min 58 sec) 
Heartbeat CPU 0 instructions: 210000004 cycles: 59427207 heartbeat IPC: 3.70456 cumulative IPC: 3.53374 (Simulation time: 0 hr 18 min 39 sec) 
Heartbeat CPU 0 instructions: 220000000 cycles: 62174994 heartbeat IPC: 3.63929 cumulative IPC: 3.5384 (Simulation time: 0 hr 19 min 42 sec) 
Heartbeat CPU 0 instructions: 230000000 cycles: 65139930 heartbeat IPC: 3.37275 cumulative IPC: 3.53086 (Simulation time: 0 hr 20 min 41 sec) 
Heartbeat CPU 0 instructions: 240000003 cycles: 68234748 heartbeat IPC: 3.23121 cumulative IPC: 3.51727 (Simulation time: 0 hr 21 min 25 sec) 
Heartbeat CPU 0 instructions: 250000004 cycles: 71445496 heartbeat IPC: 3.11454 cumulative IPC: 3.49917 (Simulation time: 0 hr 22 min 17 sec) 
Heartbeat CPU 0 instructions: 260000002 cycles: 74127983 heartbeat IPC: 3.72788 cumulative IPC: 3.50745 (Simulation time: 0 hr 23 min 20 sec) 
Heartbeat CPU 0 instructions: 270000002 cycles: 76969822 heartbeat IPC: 3.51885 cumulative IPC: 3.50787 (Simulation time: 0 hr 24 min 28 sec) 
Heartbeat CPU 0 instructions: 280000002 cycles: 79622762 heartbeat IPC: 3.7694 cumulative IPC: 3.51658 (Simulation time: 0 hr 25 min 16 sec) 
Heartbeat CPU 0 instructions: 290000002 cycles: 82590505 heartbeat IPC: 3.36956 cumulative IPC: 3.5113 (Simulation time: 0 hr 25 min 59 sec) 
Heartbeat CPU 0 instructions: 300000000 cycles: 85237481 heartbeat IPC: 3.7779 cumulative IPC: 3.51958 (Simulation time: 0 hr 26 min 38 sec) 
Heartbeat CPU 0 instructions: 310000000 cycles: 87941191 heartbeat IPC: 3.69862 cumulative IPC: 3.52508 (Simulation time: 0 hr 27 min 34 sec) 
Heartbeat CPU 0 instructions: 320000002 cycles: 90722715 heartbeat IPC: 3.59515 cumulative IPC: 3.52723 (Simulation time: 0 hr 28 min 36 sec) 
Heartbeat CPU 0 instructions: 330000000 cycles: 93797824 heartbeat IPC: 3.25192 cumulative IPC: 3.51821 (Simulation time: 0 hr 29 min 54 sec) 
Heartbeat CPU 0 instructions: 340000003 cycles: 96959209 heartbeat IPC: 3.16317 cumulative IPC: 3.50663 (Simulation time: 0 hr 31 min 15 sec) 
Heartbeat CPU 0 instructions: 350000001 cycles: 99789313 heartbeat IPC: 3.53344 cumulative IPC: 3.50739 (Simulation time: 0 hr 32 min 11 sec) 
Heartbeat CPU 0 instructions: 360000002 cycles: 102435940 heartbeat IPC: 3.77839 cumulative IPC: 3.51439 (Simulation time: 0 hr 32 min 50 sec) 
Heartbeat CPU 0 instructions: 370000003 cycles: 105141204 heartbeat IPC: 3.6965 cumulative IPC: 3.51908 (Simulation time: 0 hr 33 min 28 sec) 
Heartbeat CPU 0 instructions: 380000004 cycles: 108188722 heartbeat IPC: 3.28136 cumulative IPC: 3.51238 (Simulation time: 0 hr 34 min 15 sec) 
Heartbeat CPU 0 instructions: 390000002 cycles: 111139531 heartbeat IPC: 3.3889 cumulative IPC: 3.5091 (Simulation time: 0 hr 35 min 19 sec) 
Heartbeat CPU 0 instructions: 400000001 cycles: 113884380 heartbeat IPC: 3.64319 cumulative IPC: 3.51233 (Simulation time: 0 hr 36 min 28 sec) 
Heartbeat CPU 0 instructions: 410000003 cycles: 116552297 heartbeat IPC: 3.74824 cumulative IPC: 3.51773 (Simulation time: 0 hr 37 min 28 sec) 
Heartbeat CPU 0 instructions: 420000001 cycles: 119272122 heartbeat IPC: 3.67671 cumulative IPC: 3.52136 (Simulation time: 0 hr 38 min 10 sec) 
Heartbeat CPU 0 instructions: 430000002 cycles: 122119890 heartbeat IPC: 3.51152 cumulative IPC: 3.52113 (Simulation time: 0 hr 38 min 56 sec) 
Heartbeat CPU 0 instructions: 440000002 cycles: 125201649 heartbeat IPC: 3.2449 cumulative IPC: 3.51433 (Simulation time: 0 hr 39 min 48 sec) 
Heartbeat CPU 0 instructions: 450000004 cycles: 128377458 heartbeat IPC: 3.1488 cumulative IPC: 3.50529 (Simulation time: 0 hr 40 min 44 sec) 
Heartbeat CPU 0 instructions: 460000001 cycles: 131184471 heartbeat IPC: 3.5625 cumulative IPC: 3.50651 (Simulation time: 0 hr 41 min 40 sec) 
Heartbeat CPU 0 instructions: 470000000 cycles: 133834640 heartbeat IPC: 3.77334 cumulative IPC: 3.5118 (Simulation time: 0 hr 42 min 29 sec) 
Heartbeat CPU 0 instructions: 480000003 cycles: 136804134 heartbeat IPC: 3.36758 cumulative IPC: 3.50867 (Simulation time: 0 hr 43 min 24 sec) 
Heartbeat CPU 0 instructions: 490000000 cycles: 139531432 heartbeat IPC: 3.66663 cumulative IPC: 3.51175 (Simulation time: 0 hr 44 min 3 sec) 
Heartbeat CPU 0 instructions: 500000002 cycles: 142315280 heartbeat IPC: 3.59215 cumulative IPC: 3.51333 (Simulation time: 0 hr 44 min 43 sec) 

Warmup complete CPU 0 instructions: 500000002 cycles: 142315280 (Simulation time: 0 hr 44 min 43 sec) 

Heartbeat CPU 0 instructions: 510000001 cycles: 151948950 heartbeat IPC: 1.03803 cumulative IPC: 1.03803 (Simulation time: 0 hr 45 min 39 sec) 
Heartbeat CPU 0 instructions: 520000000 cycles: 163288028 heartbeat IPC: 0.881906 cumulative IPC: 0.953618 (Simulation time: 0 hr 46 min 33 sec) 
Heartbeat CPU 0 instructions: 530000001 cycles: 172958293 heartbeat IPC: 1.0341 cumulative IPC: 0.979016 (Simulation time: 0 hr 47 min 26 sec) 
Heartbeat CPU 0 instructions: 540000002 cycles: 183021664 heartbeat IPC: 0.993703 cumulative IPC: 0.982647 (Simulation time: 0 hr 48 min 32 sec) 
Heartbeat CPU 0 instructions: 550000000 cycles: 193767481 heartbeat IPC: 0.930595 cumulative IPC: 0.971776 (Simulation time: 0 hr 50 min 3 sec) 
Heartbeat CPU 0 instructions: 560000001 cycles: 203406571 heartbeat IPC: 1.03744 cumulative IPC: 0.982137 (Simulation time: 0 hr 51 min 36 sec) 
Heartbeat CPU 0 instructions: 570000000 cycles: 212424187 heartbeat IPC: 1.10894 cumulative IPC: 0.998447 (Simulation time: 0 hr 52 min 59 sec) 
Heartbeat CPU 0 instructions: 580000000 cycles: 220087297 heartbeat IPC: 1.30495 cumulative IPC: 1.02865 (Simulation time: 0 hr 54 min 14 sec) 
Heartbeat CPU 0 instructions: 590000001 cycles: 226845983 heartbeat IPC: 1.47958 cumulative IPC: 1.0647 (Simulation time: 0 hr 55 min 16 sec) 
Heartbeat CPU 0 instructions: 600000001 cycles: 236235797 heartbeat IPC: 1.06498 cumulative IPC: 1.06473 (Simulation time: 0 hr 56 min 32 sec) 
Heartbeat CPU 0 instructions: 610000000 cycles: 249160559 heartbeat IPC: 0.773709 cumulative IPC: 1.02953 (Simulation time: 0 hr 57 min 39 sec) 
Heartbeat CPU 0 instructions: 620000001 cycles: 259436197 heartbeat IPC: 0.973176 cumulative IPC: 1.02458 (Simulation time: 0 hr 59 min 13 sec) 
Heartbeat CPU 0 instructions: 630000000 cycles: 270426408 heartbeat IPC: 0.909901 cumulative IPC: 1.01474 (Simulation time: 1 hr 0 min 31 sec) 
Heartbeat CPU 0 instructions: 640000001 cycles: 279687301 heartbeat IPC: 1.07981 cumulative IPC: 1.01913 (Simulation time: 1 hr 1 min 58 sec) 
Heartbeat CPU 0 instructions: 650000000 cycles: 290451712 heartbeat IPC: 0.928987 cumulative IPC: 1.01258 (Simulation time: 1 hr 3 min 47 sec) 
Heartbeat CPU 0 instructions: 660000003 cycles: 300774429 heartbeat IPC: 0.968737 cumulative IPC: 1.00972 (Simulation time: 1 hr 5 min 27 sec) 
Heartbeat CPU 0 instructions: 670000001 cycles: 312253798 heartbeat IPC: 0.871128 cumulative IPC: 1.00036 (Simulation time: 1 hr 6 min 37 sec) 
Heartbeat CPU 0 instructions: 680000000 cycles: 322175788 heartbeat IPC: 1.00786 cumulative IPC: 1.00078 (Simulation time: 1 hr 7 min 27 sec) 
Heartbeat CPU 0 instructions: 690000003 cycles: 331370053 heartbeat IPC: 1.08763 cumulative IPC: 1.005 (Simulation time: 1 hr 8 min 49 sec) 
Heartbeat CPU 0 instructions: 700000004 cycles: 339272961 heartbeat IPC: 1.26536 cumulative IPC: 1.01545 (Simulation time: 1 hr 10 min 19 sec) 
Heartbeat CPU 0 instructions: 710000000 cycles: 346265241 heartbeat IPC: 1.43015 cumulative IPC: 1.02966 (Simulation time: 1 hr 11 min 29 sec) 
Heartbeat CPU 0 instructions: 720000000 cycles: 356977103 heartbeat IPC: 0.933545 cumulative IPC: 1.02487 (Simulation time: 1 hr 13 min 2 sec) 
Heartbeat CPU 0 instructions: 730000001 cycles: 369689675 heartbeat IPC: 0.786623 cumulative IPC: 1.01155 (Simulation time: 1 hr 13 min 58 sec) 
Heartbeat CPU 0 instructions: 740000004 cycles: 380619780 heartbeat IPC: 0.914905 cumulative IPC: 1.00711 (Simulation time: 1 hr 15 min 15 sec) 
Heartbeat CPU 0 instructions: 750000004 cycles: 390895432 heartbeat IPC: 0.973174 cumulative IPC: 1.00571 (Simulation time: 1 hr 16 min 17 sec) 
Heartbeat CPU 0 instructions: 760000003 cycles: 401838147 heartbeat IPC: 0.91385 cumulative IPC: 1.00184 (Simulation time: 1 hr 17 min 29 sec) 
Heartbeat CPU 0 instructions: 770000000 cycles: 411244449 heartbeat IPC: 1.06312 cumulative IPC: 1.00398 (Simulation time: 1 hr 18 min 47 sec) 
Heartbeat CPU 0 instructions: 780000001 cycles: 421649631 heartbeat IPC: 0.96106 cumulative IPC: 1.00238 (Simulation time: 1 hr 19 min 54 sec) 
Heartbeat CPU 0 instructions: 790000000 cycles: 432284585 heartbeat IPC: 0.940295 cumulative IPC: 1.00011 (Simulation time: 1 hr 20 min 47 sec) 
Heartbeat CPU 0 instructions: 800000000 cycles: 441886145 heartbeat IPC: 1.0415 cumulative IPC: 1.00143 (Simulation time: 1 hr 21 min 40 sec) 
Heartbeat CPU 0 instructions: 810000001 cycles: 449868005 heartbeat IPC: 1.25284 cumulative IPC: 1.00796 (Simulation time: 1 hr 23 min 21 sec) 
Heartbeat CPU 0 instructions: 820000001 cycles: 458340795 heartbeat IPC: 1.18025 cumulative IPC: 1.01258 (Simulation time: 1 hr 24 min 54 sec) 
Heartbeat CPU 0 instructions: 830000001 cycles: 471058372 heartbeat IPC: 0.786313 cumulative IPC: 1.00382 (Simulation time: 1 hr 26 min 21 sec) 
Heartbeat CPU 0 instructions: 840000001 cycles: 481122152 heartbeat IPC: 0.993662 cumulative IPC: 1.00352 (Simulation time: 1 hr 27 min 50 sec) 
Heartbeat CPU 0 instructions: 850000002 cycles: 492433105 heartbeat IPC: 0.884099 cumulative IPC: 0.999663 (Simulation time: 1 hr 29 min 29 sec) 
Heartbeat CPU 0 instructions: 860000000 cycles: 501927307 heartbeat IPC: 1.05327 cumulative IPC: 1.00108 (Simulation time: 1 hr 30 min 36 sec) 
Heartbeat CPU 0 instructions: 870000003 cycles: 513626364 heartbeat IPC: 0.85477 cumulative IPC: 0.996469 (Simulation time: 1 hr 31 min 30 sec) 
Heartbeat CPU 0 instructions: 880000000 cycles: 523761178 heartbeat IPC: 0.986698 cumulative IPC: 0.996209 (Simulation time: 1 hr 32 min 18 sec) 
Heartbeat CPU 0 instructions: 890000001 cycles: 532313534 heartbeat IPC: 1.16927 cumulative IPC: 1 (Simulation time: 1 hr 33 min 14 sec) 
Heartbeat CPU 0 instructions: 900000000 cycles: 544298698 heartbeat IPC: 0.834365 cumulative IPC: 0.995066 (Simulation time: 1 hr 34 min 10 sec) 
Heartbeat CPU 0 instructions: 910000002 cycles: 554272151 heartbeat IPC: 1.00266 cumulative IPC: 0.99525 (Simulation time: 1 hr 35 min 26 sec) 
Heartbeat CPU 0 instructions: 920000000 cycles: 562720952 heartbeat IPC: 1.1836 cumulative IPC: 0.999035 (Simulation time: 1 hr 36 min 30 sec) 
Heartbeat CPU 0 instructions: 930000001 cycles: 572311295 heartbeat IPC: 1.04272 cumulative IPC: 1.00001 (Simulation time: 1 hr 37 min 41 sec) 
Heartbeat CPU 0 instructions: 940000000 cycles: 584169904 heartbeat IPC: 0.843269 cumulative IPC: 0.995803 (Simulation time: 1 hr 39 min 15 sec) 
Heartbeat CPU 0 instructions: 950000000 cycles: 594052615 heartbeat IPC: 1.01187 cumulative IPC: 0.996154 (Simulation time: 1 hr 40 min 47 sec) 
Heartbeat CPU 0 instructions: 960000001 cycles: 603182040 heartbeat IPC: 1.09536 cumulative IPC: 0.998119 (Simulation time: 1 hr 42 min 1 sec) 
Heartbeat CPU 0 instructions: 970000003 cycles: 611933622 heartbeat IPC: 1.14265 cumulative IPC: 1.00081 (Simulation time: 1 hr 43 min 15 sec) 
Heartbeat CPU 0 instructions: 980000002 cycles: 620458015 heartbeat IPC: 1.1731 cumulative IPC: 1.00388 (Simulation time: 1 hr 44 min 43 sec) 
Heartbeat CPU 0 instructions: 990000004 cycles: 628356390 heartbeat IPC: 1.26608 cumulative IPC: 1.00815 (Simulation time: 1 hr 46 min 26 sec) 
Heartbeat CPU 0 instructions: 1000000001 cycles: 634003683 heartbeat IPC: 1.77076 cumulative IPC: 1.0169 (Simulation time: 1 hr 48 min 15 sec) 
Heartbeat CPU 0 instructions: 1010000001 cycles: 640458650 heartbeat IPC: 1.54919 cumulative IPC: 1.0238 (Simulation time: 1 hr 49 min 52 sec) 
Heartbeat CPU 0 instructions: 1020000002 cycles: 647739090 heartbeat IPC: 1.37354 cumulative IPC: 1.02884 (Simulation time: 1 hr 50 min 53 sec) 
Heartbeat CPU 0 instructions: 1030000000 cycles: 656573552 heartbeat IPC: 1.13193 cumulative IPC: 1.03061 (Simulation time: 1 hr 51 min 51 sec) 
Heartbeat CPU 0 instructions: 1040000000 cycles: 669196052 heartbeat IPC: 0.792236 cumulative IPC: 1.0249 (Simulation time: 1 hr 52 min 52 sec) 
Heartbeat CPU 0 instructions: 1050000003 cycles: 680972704 heartbeat IPC: 0.849138 cumulative IPC: 1.02106 (Simulation time: 1 hr 53 min 45 sec) 
Heartbeat CPU 0 instructions: 1060000003 cycles: 692481295 heartbeat IPC: 0.868916 cumulative IPC: 1.01787 (Simulation time: 1 hr 55 min 3 sec) 
Heartbeat CPU 0 instructions: 1070000000 cycles: 704819823 heartbeat IPC: 0.810469 cumulative IPC: 1.01333 (Simulation time: 1 hr 56 min 41 sec) 
Heartbeat CPU 0 instructions: 1080000001 cycles: 715720950 heartbeat IPC: 0.917336 cumulative IPC: 1.0115 (Simulation time: 1 hr 57 min 43 sec) 
Heartbeat CPU 0 instructions: 1090000001 cycles: 725586296 heartbeat IPC: 1.01365 cumulative IPC: 1.01154 (Simulation time: 1 hr 58 min 42 sec) 
Heartbeat CPU 0 instructions: 1100000000 cycles: 734824269 heartbeat IPC: 1.08249 cumulative IPC: 1.01264 (Simulation time: 1 hr 59 min 39 sec) 
Heartbeat CPU 0 instructions: 1110000001 cycles: 743631049 heartbeat IPC: 1.13549 cumulative IPC: 1.01444 (Simulation time: 2 hr 0 min 36 sec) 
Heartbeat CPU 0 instructions: 1120000004 cycles: 752104684 heartbeat IPC: 1.18013 cumulative IPC: 1.01674 (Simulation time: 2 hr 1 min 48 sec) 
Heartbeat CPU 0 instructions: 1130000000 cycles: 760421795 heartbeat IPC: 1.20234 cumulative IPC: 1.01924 (Simulation time: 2 hr 2 min 44 sec) 
Heartbeat CPU 0 instructions: 1140000002 cycles: 768595850 heartbeat IPC: 1.22338 cumulative IPC: 1.02191 (Simulation time: 2 hr 3 min 41 sec) 
Heartbeat CPU 0 instructions: 1150000001 cycles: 776623978 heartbeat IPC: 1.24562 cumulative IPC: 1.02474 (Simulation time: 2 hr 4 min 40 sec) 
Heartbeat CPU 0 instructions: 1160000004 cycles: 784636869 heartbeat IPC: 1.24799 cumulative IPC: 1.02752 (Simulation time: 2 hr 5 min 38 sec) 
Heartbeat CPU 0 instructions: 1170000001 cycles: 792538068 heartbeat IPC: 1.26563 cumulative IPC: 1.03042 (Simulation time: 2 hr 6 min 39 sec) 
Heartbeat CPU 0 instructions: 1180000001 cycles: 800332316 heartbeat IPC: 1.283 cumulative IPC: 1.03341 (Simulation time: 2 hr 7 min 49 sec) 
Heartbeat CPU 0 instructions: 1190000003 cycles: 808092951 heartbeat IPC: 1.28855 cumulative IPC: 1.03638 (Simulation time: 2 hr 9 min 36 sec) 
Heartbeat CPU 0 instructions: 1200000001 cycles: 814947703 heartbeat IPC: 1.45884 cumulative IPC: 1.04069 (Simulation time: 2 hr 10 min 46 sec) 
Heartbeat CPU 0 instructions: 1210000000 cycles: 819753077 heartbeat IPC: 2.081 cumulative IPC: 1.04807 (Simulation time: 2 hr 12 min 13 sec) 
Heartbeat CPU 0 instructions: 1220000003 cycles: 824831912 heartbeat IPC: 1.96896 cumulative IPC: 1.05492 (Simulation time: 2 hr 13 min 10 sec) 
Heartbeat CPU 0 instructions: 1230000003 cycles: 830097605 heartbeat IPC: 1.89909 cumulative IPC: 1.06138 (Simulation time: 2 hr 14 min 6 sec) 
Heartbeat CPU 0 instructions: 1240000001 cycles: 835621077 heartbeat IPC: 1.81046 cumulative IPC: 1.06735 (Simulation time: 2 hr 15 min 27 sec) 
Heartbeat CPU 0 instructions: 1250000000 cycles: 841350131 heartbeat IPC: 1.74549 cumulative IPC: 1.07291 (Simulation time: 2 hr 16 min 43 sec) 
Heartbeat CPU 0 instructions: 1260000002 cycles: 847343191 heartbeat IPC: 1.6686 cumulative IPC: 1.07797 (Simulation time: 2 hr 18 min 10 sec) 
Heartbeat CPU 0 instructions: 1270000000 cycles: 853524272 heartbeat IPC: 1.61784 cumulative IPC: 1.08266 (Simulation time: 2 hr 19 min 51 sec) 
Heartbeat CPU 0 instructions: 1280000000 cycles: 860014310 heartbeat IPC: 1.54082 cumulative IPC: 1.08681 (Simulation time: 2 hr 21 min 40 sec) 
Heartbeat CPU 0 instructions: 1290000000 cycles: 867024421 heartbeat IPC: 1.42651 cumulative IPC: 1.09009 (Simulation time: 2 hr 22 min 39 sec) 
Heartbeat CPU 0 instructions: 1300000001 cycles: 874238292 heartbeat IPC: 1.38622 cumulative IPC: 1.09301 (Simulation time: 2 hr 23 min 39 sec) 
Heartbeat CPU 0 instructions: 1310000000 cycles: 882185416 heartbeat IPC: 1.25832 cumulative IPC: 1.09479 (Simulation time: 2 hr 24 min 39 sec) 
Heartbeat CPU 0 instructions: 1320000001 cycles: 890561872 heartbeat IPC: 1.19382 cumulative IPC: 1.0959 (Simulation time: 2 hr 26 min 8 sec) 
Heartbeat CPU 0 instructions: 1330000002 cycles: 899737129 heartbeat IPC: 1.08989 cumulative IPC: 1.09582 (Simulation time: 2 hr 27 min 19 sec) 
Heartbeat CPU 0 instructions: 1340000002 cycles: 909929390 heartbeat IPC: 0.981137 cumulative IPC: 1.0943 (Simulation time: 2 hr 28 min 54 sec) 
Heartbeat CPU 0 instructions: 1350000002 cycles: 922182020 heartbeat IPC: 0.816151 cumulative IPC: 1.08993 (Simulation time: 2 hr 30 min 34 sec) 
Heartbeat CPU 0 instructions: 1360000001 cycles: 938441321 heartbeat IPC: 0.615033 cumulative IPC: 1.08023 (Simulation time: 2 hr 31 min 46 sec) 
Heartbeat CPU 0 instructions: 1370000001 cycles: 949685924 heartbeat IPC: 0.889316 cumulative IPC: 1.07757 (Simulation time: 2 hr 32 min 49 sec) 
Heartbeat CPU 0 instructions: 1380000002 cycles: 961168049 heartbeat IPC: 0.870919 cumulative IPC: 1.07467 (Simulation time: 2 hr 34 min 9 sec) 
Heartbeat CPU 0 instructions: 1390000004 cycles: 972350626 heartbeat IPC: 0.894248 cumulative IPC: 1.07224 (Simulation time: 2 hr 35 min 44 sec) 
Heartbeat CPU 0 instructions: 1400000001 cycles: 982057933 heartbeat IPC: 1.03015 cumulative IPC: 1.07176 (Simulation time: 2 hr 36 min 58 sec) 
Heartbeat CPU 0 instructions: 1410000000 cycles: 992940079 heartbeat IPC: 0.918936 cumulative IPC: 1.0698 (Simulation time: 2 hr 38 min 18 sec) 
Heartbeat CPU 0 instructions: 1420000000 cycles: 1003925401 heartbeat IPC: 0.910306 cumulative IPC: 1.06777 (Simulation time: 2 hr 39 min 13 sec) 
Heartbeat CPU 0 instructions: 1430000000 cycles: 1014833477 heartbeat IPC: 0.916752 cumulative IPC: 1.06588 (Simulation time: 2 hr 40 min 6 sec) 
Heartbeat CPU 0 instructions: 1440000004 cycles: 1024525609 heartbeat IPC: 1.03177 cumulative IPC: 1.06551 (Simulation time: 2 hr 40 min 56 sec) 
Heartbeat CPU 0 instructions: 1450000000 cycles: 1033589515 heartbeat IPC: 1.10328 cumulative IPC: 1.06589 (Simulation time: 2 hr 41 min 52 sec) 
Heartbeat CPU 0 instructions: 1460000000 cycles: 1041346700 heartbeat IPC: 1.28913 cumulative IPC: 1.06782 (Simulation time: 2 hr 43 min 23 sec) 
Heartbeat CPU 0 instructions: 1470000003 cycles: 1048135180 heartbeat IPC: 1.47308 cumulative IPC: 1.07085 (Simulation time: 2 hr 45 min 5 sec) 
Heartbeat CPU 0 instructions: 1480000000 cycles: 1057751464 heartbeat IPC: 1.0399 cumulative IPC: 1.07053 (Simulation time: 2 hr 46 min 14 sec) 
Heartbeat CPU 0 instructions: 1490000003 cycles: 1070512156 heartbeat IPC: 0.783657 cumulative IPC: 1.06658 (Simulation time: 2 hr 47 min 11 sec) 
Heartbeat CPU 0 instructions: 1500000000 cycles: 1082032771 heartbeat IPC: 0.868009 cumulative IPC: 1.06415 (Simulation time: 2 hr 48 min 3 sec) 
Heartbeat CPU 0 instructions: 1510000002 cycles: 1092200270 heartbeat IPC: 0.983526 cumulative IPC: 1.06329 (Simulation time: 2 hr 48 min 52 sec) 
Heartbeat CPU 0 instructions: 1520000004 cycles: 1100606962 heartbeat IPC: 1.18953 cumulative IPC: 1.06439 (Simulation time: 2 hr 49 min 48 sec) 
Heartbeat CPU 0 instructions: 1530000002 cycles: 1112139982 heartbeat IPC: 0.867075 cumulative IPC: 1.06205 (Simulation time: 2 hr 50 min 54 sec) 
Heartbeat CPU 0 instructions: 1540000003 cycles: 1122931602 heartbeat IPC: 0.926645 cumulative IPC: 1.06056 (Simulation time: 2 hr 51 min 51 sec) 
Heartbeat CPU 0 instructions: 1550000003 cycles: 1134261350 heartbeat IPC: 0.882632 cumulative IPC: 1.05853 (Simulation time: 2 hr 52 min 47 sec) 
Heartbeat CPU 0 instructions: 1560000001 cycles: 1144729769 heartbeat IPC: 0.955254 cumulative IPC: 1.05745 (Simulation time: 2 hr 53 min 44 sec) 
Heartbeat CPU 0 instructions: 1570000003 cycles: 1155827383 heartbeat IPC: 0.901095 cumulative IPC: 1.05573 (Simulation time: 2 hr 54 min 39 sec) 
Heartbeat CPU 0 instructions: 1580000000 cycles: 1166516010 heartbeat IPC: 0.935574 cumulative IPC: 1.05448 (Simulation time: 2 hr 55 min 39 sec) 
Heartbeat CPU 0 instructions: 1590000001 cycles: 1177404832 heartbeat IPC: 0.918373 cumulative IPC: 1.05305 (Simulation time: 2 hr 56 min 34 sec) 
Heartbeat CPU 0 instructions: 1600000001 cycles: 1188526608 heartbeat IPC: 0.899137 cumulative IPC: 1.05141 (Simulation time: 2 hr 57 min 27 sec) 
Heartbeat CPU 0 instructions: 1610000001 cycles: 1198407492 heartbeat IPC: 1.01206 cumulative IPC: 1.05104 (Simulation time: 2 hr 58 min 16 sec) 
Heartbeat CPU 0 instructions: 1620000001 cycles: 1206496144 heartbeat IPC: 1.2363 cumulative IPC: 1.05245 (Simulation time: 2 hr 59 min 12 sec) 
Heartbeat CPU 0 instructions: 1630000004 cycles: 1218637922 heartbeat IPC: 0.823603 cumulative IPC: 1.04987 (Simulation time: 3 hr 0 min 10 sec) 
Heartbeat CPU 0 instructions: 1640000000 cycles: 1229760497 heartbeat IPC: 0.899072 cumulative IPC: 1.04833 (Simulation time: 3 hr 1 min 0 sec) 
Heartbeat CPU 0 instructions: 1650000002 cycles: 1239556143 heartbeat IPC: 1.02086 cumulative IPC: 1.04808 (Simulation time: 3 hr 2 min 14 sec) 
Heartbeat CPU 0 instructions: 1660000000 cycles: 1251187003 heartbeat IPC: 0.859782 cumulative IPC: 1.04611 (Simulation time: 3 hr 3 min 11 sec) 
Heartbeat CPU 0 instructions: 1670000004 cycles: 1261768556 heartbeat IPC: 0.945041 cumulative IPC: 1.04515 (Simulation time: 3 hr 4 min 7 sec) 
Heartbeat CPU 0 instructions: 1680000000 cycles: 1272858891 heartbeat IPC: 0.901686 cumulative IPC: 1.04375 (Simulation time: 3 hr 5 min 9 sec) 
Heartbeat CPU 0 instructions: 1690000001 cycles: 1283943106 heartbeat IPC: 0.902184 cumulative IPC: 1.04237 (Simulation time: 3 hr 6 min 9 sec) 
Heartbeat CPU 0 instructions: 1700000004 cycles: 1293923301 heartbeat IPC: 1.00198 cumulative IPC: 1.04202 (Simulation time: 3 hr 6 min 58 sec) 
Heartbeat CPU 0 instructions: 1710000000 cycles: 1303140742 heartbeat IPC: 1.0849 cumulative IPC: 1.04236 (Simulation time: 3 hr 7 min 49 sec) 
Heartbeat CPU 0 instructions: 1720000003 cycles: 1310591417 heartbeat IPC: 1.34216 cumulative IPC: 1.04427 (Simulation time: 3 hr 8 min 43 sec) 
Heartbeat CPU 0 instructions: 1730000000 cycles: 1318415209 heartbeat IPC: 1.27815 cumulative IPC: 1.04583 (Simulation time: 3 hr 9 min 41 sec) 
Heartbeat CPU 0 instructions: 1740000002 cycles: 1331040861 heartbeat IPC: 0.792038 cumulative IPC: 1.04313 (Simulation time: 3 hr 10 min 39 sec) 
Heartbeat CPU 0 instructions: 1750000001 cycles: 1342315745 heartbeat IPC: 0.886927 cumulative IPC: 1.04167 (Simulation time: 3 hr 11 min 30 sec) 
Heartbeat CPU 0 instructions: 1760000000 cycles: 1352310805 heartbeat IPC: 1.00049 cumulative IPC: 1.04133 (Simulation time: 3 hr 12 min 19 sec) 
Heartbeat CPU 0 instructions: 1770000003 cycles: 1360571443 heartbeat IPC: 1.21056 cumulative IPC: 1.04247 (Simulation time: 3 hr 13 min 16 sec) 
Heartbeat CPU 0 instructions: 1780000001 cycles: 1372485726 heartbeat IPC: 0.839329 cumulative IPC: 1.04051 (Simulation time: 3 hr 14 min 11 sec) 
Heartbeat CPU 0 instructions: 1790000000 cycles: 1382578905 heartbeat IPC: 0.990768 cumulative IPC: 1.0401 (Simulation time: 3 hr 14 min 59 sec) 
Heartbeat CPU 0 instructions: 1800000000 cycles: 1391600921 heartbeat IPC: 1.1084 cumulative IPC: 1.04059 (Simulation time: 3 hr 15 min 58 sec) 
Heartbeat CPU 0 instructions: 1810000000 cycles: 1403275271 heartbeat IPC: 0.856579 cumulative IPC: 1.03889 (Simulation time: 3 hr 16 min 52 sec) 
Heartbeat CPU 0 instructions: 1820000001 cycles: 1413109222 heartbeat IPC: 1.01689 cumulative IPC: 1.03872 (Simulation time: 3 hr 17 min 41 sec) 
Heartbeat CPU 0 instructions: 1830000002 cycles: 1421123135 heartbeat IPC: 1.24783 cumulative IPC: 1.04003 (Simulation time: 3 hr 18 min 37 sec) 
Heartbeat CPU 0 instructions: 1840000003 cycles: 1432938872 heartbeat IPC: 0.846329 cumulative IPC: 1.03826 (Simulation time: 3 hr 19 min 34 sec) 
Heartbeat CPU 0 instructions: 1850000001 cycles: 1442892640 heartbeat IPC: 1.00464 cumulative IPC: 1.038 (Simulation time: 3 hr 20 min 26 sec) 
Heartbeat CPU 0 instructions: 1860000001 cycles: 1454442934 heartbeat IPC: 0.865779 cumulative IPC: 1.03648 (Simulation time: 3 hr 21 min 20 sec) 
Heartbeat CPU 0 instructions: 1870000001 cycles: 1465076272 heartbeat IPC: 0.940438 cumulative IPC: 1.03571 (Simulation time: 3 hr 22 min 9 sec) 
Heartbeat CPU 0 instructions: 1880000002 cycles: 1474659297 heartbeat IPC: 1.04351 cumulative IPC: 1.03577 (Simulation time: 3 hr 22 min 58 sec) 
Heartbeat CPU 0 instructions: 1890000000 cycles: 1482782384 heartbeat IPC: 1.23106 cumulative IPC: 1.03695 (Simulation time: 3 hr 23 min 52 sec) 
Heartbeat CPU 0 instructions: 1900000001 cycles: 1490741268 heartbeat IPC: 1.25646 cumulative IPC: 1.03825 (Simulation time: 3 hr 24 min 50 sec) 
Heartbeat CPU 0 instructions: 1910000000 cycles: 1503228328 heartbeat IPC: 0.800829 cumulative IPC: 1.03607 (Simulation time: 3 hr 25 min 47 sec) 
Heartbeat CPU 0 instructions: 1920000000 cycles: 1513875756 heartbeat IPC: 0.939194 cumulative IPC: 1.03532 (Simulation time: 3 hr 26 min 44 sec) 
Heartbeat CPU 0 instructions: 1930000000 cycles: 1524885836 heartbeat IPC: 0.908259 cumulative IPC: 1.03431 (Simulation time: 3 hr 27 min 35 sec) 
Heartbeat CPU 0 instructions: 1940000002 cycles: 1535505303 heartbeat IPC: 0.941667 cumulative IPC: 1.0336 (Simulation time: 3 hr 28 min 32 sec) 
Heartbeat CPU 0 instructions: 1950000001 cycles: 1546151270 heartbeat IPC: 0.939323 cumulative IPC: 1.03288 (Simulation time: 3 hr 29 min 26 sec) 
Heartbeat CPU 0 instructions: 1960000000 cycles: 1556912511 heartbeat IPC: 0.929261 cumulative IPC: 1.0321 (Simulation time: 3 hr 30 min 19 sec) 
Heartbeat CPU 0 instructions: 1970000000 cycles: 1566552017 heartbeat IPC: 1.0374 cumulative IPC: 1.03213 (Simulation time: 3 hr 31 min 11 sec) 
Heartbeat CPU 0 instructions: 1980000001 cycles: 1575510316 heartbeat IPC: 1.11628 cumulative IPC: 1.03266 (Simulation time: 3 hr 32 min 4 sec) 
Heartbeat CPU 0 instructions: 1990000002 cycles: 1584176543 heartbeat IPC: 1.1539 cumulative IPC: 1.03339 (Simulation time: 3 hr 32 min 57 sec) 
*** Reached end of trace: traces/623.xalancbmk_s-325B.champsimtrace.xz
Heartbeat CPU 0 instructions: 2000000003 cycles: 1592612818 heartbeat IPC: 1.18536 cumulative IPC: 1.03427 (Simulation time: 3 hr 33 min 51 sec) 
Finished CPU 0 instructions: 1500000001 cycles: 1450297538 cumulative IPC: 1.03427 (Simulation time: 3 hr 33 min 51 sec) 

ChampSim completed all CPUs

Region of Interest Statistics

CPU 0 cumulative IPC: 1.03427 instructions: 1500000001 cycles: 1450297538
cpu0_DTLB TOTAL     ACCESS:  238684011  HIT:  208156802  MISS:   30527209
cpu0_DTLB LOAD      ACCESS:  183467377  HIT:  153663385  MISS:   29803992
cpu0_DTLB RFO       ACCESS:   55216634  HIT:   54493417  MISS:     723217
cpu0_DTLB PREFETCH  ACCESS:          0  HIT:          0  MISS:          0
cpu0_DTLB WRITEBACK ACCESS:          0  HIT:          0  MISS:          0
cpu0_DTLB TRANSLATION ACCESS:          0  HIT:          0  MISS:          0
cpu0_DTLB PREFETCH  REQUESTED:          0  ISSUED:          0  USEFUL:          0  USELESS:          0
cpu0_DTLB AVERAGE MISS LATENCY: 9.09218 cycles
cpu0_ITLB TOTAL     ACCESS:   92356882  HIT:   91734459  MISS:     622423
cpu0_ITLB LOAD      ACCESS:   92356882  HIT:   91734459  MISS:     622423
cpu0_ITLB RFO       ACCESS:          0  HIT:          0  MISS:          0
cpu0_ITLB PREFETCH  ACCESS:          0  HIT:          0  MISS:          0
cpu0_ITLB WRITEBACK ACCESS:          0  HIT:          0  MISS:          0
cpu0_ITLB TRANSLATION ACCESS:          0  HIT:          0  MISS:          0
cpu0_ITLB PREFETCH  REQUESTED:          0  ISSUED:          0  USEFUL:          0  USELESS:          0
cpu0_ITLB AVERAGE MISS LATENCY: 9.0441 cycles
cpu0_L1I TOTAL     ACCESS:   72869717  HIT:   69937964  MISS:    2931753
cpu0_L1I LOAD      ACCESS:   72869717  HIT:   69937964  MISS:    2931753
cpu0_L1I RFO       ACCESS:          0  HIT:          0  MISS:          0
cpu0_L1I PREFETCH  ACCESS:          0  HIT:          0  MISS:          0
cpu0_L1I WRITEBACK ACCESS:          0  HIT:          0  MISS:          0
cpu0_L1I TRANSLATION ACCESS:          0  HIT:          0  MISS:          0
cpu0_L1I PREFETCH  REQUESTED:          0  ISSUED:          0  USEFUL:          0  USELESS:          0
cpu0_L1I AVERAGE MISS LATENCY: 13.5803 cycles
cpu0_STLB TOTAL     ACCESS:   31149632  HIT:   31094456  MISS:      55176
cpu0_STLB LOAD      ACCESS:   30426415  HIT:   30397494  MISS:      28921
cpu0_STLB RFO       ACCESS:     723217  HIT:     696962  MISS:      26255
cpu0_STLB PREFETCH  ACCESS:          0  HIT:          0  MISS:          0
cpu0_STLB WRITEBACK ACCESS:          0  HIT:          0  MISS:          0
cpu0_STLB TRANSLATION ACCESS:          0  HIT:          0  MISS:          0
cpu0_STLB PREFETCH  REQUESTED:          0  ISSUED:          0  USEFUL:          0  USELESS:          0
cpu0_STLB AVERAGE MISS LATENCY: 47.2047 cycles
cpu0_L1D TOTAL     ACCESS:  299327095  HIT:  241136973  MISS:   58190122
cpu0_L1D LOAD      ACCESS:  194427106  HIT:  138979851  MISS:   55447255
cpu0_L1D RFO       ACCESS:  104846260  HIT:  102131814  MISS:    2714446
cpu0_L1D PREFETCH  ACCESS:          0  HIT:          0  MISS:          0
cpu0_L1D WRITEBACK ACCESS:          0  HIT:          0  MISS:          0
cpu0_L1D TRANSLATION ACCESS:      53729  HIT:      25308  MISS:      28421
cpu0_L1D PREFETCH  REQUESTED:          0  ISSUED:          0  USEFUL:          0  USELESS:          0
cpu0_L1D AVERAGE MISS LATENCY: 21.0283 cycles
cpu0_L2C TOTAL     ACCESS:   65392593  HIT:   62357993  MISS:    3034600
cpu0_L2C LOAD      ACCESS:   58378711  HIT:   57520110  MISS:     858601
cpu0_L2C RFO       ACCESS:    2714409  HIT:     539657  MISS:    2174752
cpu0_L2C PREFETCH  ACCESS:          0  HIT:          0  MISS:          0
cpu0_L2C WRITEBACK ACCESS:    4271052  HIT:    4270990  MISS:         62
cpu0_L2C TRANSLATION ACCESS:      28421  HIT:      27236  MISS:       1185
cpu0_L2C PREFETCH  REQUESTED:          0  ISSUED:          0  USEFUL:          0  USELESS:          0
cpu0_L2C AVERAGE MISS LATENCY: 192.278 cycles
LLC TOTAL     ACCESS:    5553757  HIT:    3515558  MISS:    2038199
LLC LOAD      ACCESS:     858597  HIT:     611018  MISS:     247579
LLC RFO       ACCESS:    2174752  HIT:     393605  MISS:    1781147
LLC PREFETCH  ACCESS:          0  HIT:          0  MISS:          0
LLC WRITEBACK ACCESS:    2519223  HIT:    2509888  MISS:       9335
LLC TRANSLATION ACCESS:       1185  HIT:       1047  MISS:        138
LLC PREFETCH  REQUESTED:          0  ISSUED:          0  USEFUL:          0  USELESS:          0
LLC AVERAGE MISS LATENCY: 255.009 cycles
~~~~~~~~~~Reuse Distance Profiler output~~~~~~~~~~
0	118969440	47180400
1	26042480	14135296
2	18232448	10735344
3	10865280	6502992
4	8350832	5544464
5	7127248	4407696
6	5026992	2379056
7	4147872	1960688
8	3993008	2036128
9	3813248	1926112
10	3743616	1929600
11	2989456	1420576
12	2083600	959392
13	2209856	1360400
14	2194080	1408352
15	2061248	1169216
16	1931104	1244160
17	2393312	1591520
18	1218720	639424
19	1615936	935600
20	1311264	703536
21	1066752	604176
22	906384	520080
23	809920	480528
24	701232	339424
25	689184	363168
26	759792	439648
27	665328	354464
28	683344	449680
29	641520	368096
30	780336	493104
31	792672	414560
32	794000	402416
33	863872	502176
34	725504	462560
35	617088	404112
36	662992	453792
37	480608	243008
38	492528	360480
39	594608	392064
40	494704	352800
41	602384	434912
42	521712	383968
43	480992	345664
44	528512	382048
45	464432	251328
46	501280	292016
47	450416	230096
48	563616	330896
49	381376	212672
50	414912	259536
51	448768	261200
52	421040	294528
53	443984	259952
54	487056	270112
55	420944	260448
56	358272	219600
57	285840	179376
58	309664	189344
59	341680	201568
60	432848	240752
61	411504	221248
62	420576	228896
63	410928	258928
64	952528	513712
66	721536	390784
68	675600	444464
70	704496	447968
72	505408	269584
74	503504	289856
76	597296	353840
78	629840	463888
80	691152	559904
82	603712	469312
84	738736	608512
86	620416	491920
88	445184	332896
90	442656	310672
92	407120	275264
94	447392	332768
96	410992	282560
98	353616	227104
100	342448	215712
102	346752	247904
104	343024	248352
106	336256	223280
108	425552	249472
110	381936	252720
112	242240	162608
114	212800	136448
116	248864	167328
118	201488	132736
120	240704	149856
122	264864	181104
124	306784	260464
126	348992	286736
128	588080	387936
132	664064	427504
136	407168	323424
140	476336	381024
144	282848	230928
148	430592	373280
152	427856	336176
156	344752	291616
160	347840	290304
164	512320	453856
168	452016	393312
172	423392	338736
176	356448	269344
180	399696	350672
184	416400	314368
188	472704	409760
192	391328	328208
196	360096	312976
200	347232	319008
204	357936	296784
208	373120	318752
212	365840	354256
216	160720	139712
220	212560	161120
224	226016	190112
228	234112	214304
232	223744	202400
236	235424	202320
240	210176	171584
244	338656	288192
248	137360	116080
252	117184	101888
256	249584	217712
264	221168	183648
272	208464	185344
280	287200	235824
288	318640	265760
296	290064	270512
304	339568	326144
312	404416	323904
320	376576	318832
328	380464	324688
336	382272	321616
344	381136	362032
352	328432	298512
360	402352	365184
368	451984	403648
376	565744	529680
384	551472	505744
392	546752	504592
400	598512	532896
408	486048	438976
416	481392	402160
424	503168	434224
432	513728	452464
440	543248	461392
448	465168	390240
456	393264	351024
464	450720	367440
472	497824	436784
480	466832	443328
488	406624	386240
496	464352	450848
504	472736	450144
512	934720	856704
528	767376	692736
544	765728	724368
560	764160	736464
576	796480	758000
592	765488	667824
608	691808	640560
624	836080	783600
640	839904	809472
656	811248	777632
672	766128	717728
688	660496	598368
704	662752	592416
720	685952	628464
736	699040	621072
752	745664	676032
768	795824	689616
784	685568	638160
800	641088	620080
816	736448	691408
832	764512	683168
848	629904	586096
864	560160	528736
880	579984	530464
896	629104	553424
912	636416	586560
928	606400	569424
944	612064	586592
960	606048	574240
976	558448	474928
992	579040	481648
1008	545856	512192
1024	1105408	1062080
1056	1104208	1044880
1088	918000	887488
1120	792208	755456
1152	794432	763040
1184	923776	886224
1216	1450976	1413744
1248	1154064	1123920
1280	735952	708096
1312	847936	816864
1344	1572288	1544912
1376	886384	862528
1408	752608	731968
1440	769488	745296
1472	831760	804816
1504	797024	772384
1536	716160	686128
1568	732000	705824
1600	660672	642976
1632	549232	534064
1664	342176	329536
1696	268208	255872
1728	237232	225792
1760	194336	183408
1792	169104	159024
1824	196576	187584
1856	229696	220960
1888	219168	208000
1920	248960	223488
1952	193168	172896
1984	192400	154928
2016	160912	152688
2048	246848	227984
2112	304464	274624
2176	342480	312512
2240	380416	357760
2304	325040	297632
2368	319744	296656
2432	272976	249536
2496	237472	207040
2560	324544	281840
2624	229488	188816
2688	256272	211488
2752	288288	248496
2816	319584	284320
2880	366432	336480
2944	385808	360912
3008	390240	367536
3072	381744	360224
3136	325824	305392
3200	331728	311632
3264	296336	278576
3328	273600	258544
3392	262448	246400
3456	246688	232208
3520	258368	242848
3584	280576	264416
3648	311424	290752
3712	413440	389408
3776	640800	614720
3840	678064	651760
3904	822896	795536
3968	764160	734240
4032	836704	808624
4096	1636304	1585456
4224	1677328	1632208
4352	1816304	1774672
4480	1827072	1793904
4608	2041648	2006896
4736	1682720	1651920
4864	1042000	1019504
4992	1299584	1279168
5120	1053264	1034176
5248	624000	614048
5376	506368	497392
5504	442048	430512
5632	421312	411664
5760	487520	478720
5888	464848	456016
6016	526848	518352
6144	562336	554288
6272	649600	638208
6400	771952	758688
6528	855088	840832
6656	907408	895312
6784	849584	840432
6912	783312	777856
7040	820032	814704
7168	800864	797120
7296	684736	681104
7424	676208	673168
7552	707184	703840
7680	643584	640304
7808	458064	455984
7936	461776	459696
8064	429872	427824
8192	817584	814720
8448	760944	759712
8704	693376	692464
8960	767936	767424
9216	687856	687200
9472	592320	591808
9728	583280	582864
9984	483744	483216
10240	445984	445520
10496	464304	463936
10752	404016	403440
11008	421232	420704
11264	377408	376896
11520	279136	278656
11776	291744	291376
12032	282064	281744
12288	291856	291456
12544	305088	304800
12800	258784	258304
13056	264720	264336
13312	247904	247472
13568	210624	210112
13824	276320	275616
14080	516192	515824
14336	430992	430640
14592	195504	195072
14848	260864	260432
15104	245520	244624
15360	236672	235696
15616	229840	229072
15872	288080	287088
16128	318496	317696
16384	506816	505424
16896	397264	395840
17408	772944	771296
17920	1577424	1575472
18432	1895280	1892880
18944	1576992	1575088
19456	1711968	1710032
19968	1387632	1386000
20480	1290464	1287920
20992	1364544	1362352
21504	1324512	1322256
22016	1631376	1629232
22528	1913440	1911904
23040	1571968	1570496
23552	1584720	1584016
24064	1294336	1293568
24576	997280	996256
25088	870992	870048
25600	983472	983008
26112	525024	524512
26624	261152	260496
27136	303664	303328
27648	341712	341344
28160	261072	260736
28672	136288	135920
29184	90288	89936
29696	42576	42368
30208	20192	19856
30720	5408	5104
31232	6448	6192
31744	3584	3408
32256	3632	3376
32768	8848	8320
33792	7344	6928
34816	10896	10496
35840	9408	8768
36864	8448	7984
37888	7696	7168
38912	9040	8720
39936	5808	5488
40960	5584	5152
41984	7328	6944
43008	5728	5376
44032	3616	3312
45056	4720	4352
46080	4224	3920
47104	4752	4464
48128	6128	5920
49152	6560	6240
50176	4208	4048
51200	4912	4640
52224	5680	5440
53248	6416	6192
54272	3200	2864
55296	3744	3536
56320	5760	5520
57344	12832	12624
58368	7088	6912
59392	5920	5760
60416	3408	3264
61440	8224	7920
62464	8208	8112
63488	6560	6416
64512	4960	4768
65536	4528	4192
67584	8608	8240
69632	11408	10992
71680	8096	7584
73728	11152	10528
75776	5488	5040
77824	11232	10752
79872	7536	7152
81920	10672	10208
83968	8144	7824
86016	8864	8480
88064	5104	4800
90112	6720	6256
92160	4992	4784
94208	3872	3696
96256	7488	7248
98304	6272	6000
100352	8400	8288
102400	3936	3728
104448	5728	5424
106496	2048	1856
108544	5344	5104
110592	3232	2944
112640	2960	2624
114688	3440	3104
116736	3072	2784
118784	1312	1040
120832	4656	4432
122880	3424	3088
124928	1328	1120
126976	2816	2640
129024	3184	2960
131072	3968	3472
135168	2208	1616
139264	3872	3312
143360	2080	1600
147456	1952	1376
151552	3952	3472
155648	1856	1280
159744	5872	5344
163840	2528	1744
167936	2672	2224
172032	2000	1552
176128	1648	1280
180224	2480	1968
184320	2288	1728
188416	2032	1632
192512	1872	1392
196608	1744	1264
200704	2192	1728
204800	2080	1504
208896	2176	1680
212992	1664	1152
217088	1456	992
221184	1648	1168
225280	1760	1264
229376	1856	1456
233472	1744	1248
237568	1200	864
241664	1456	976
245760	1392	1040
249856	1408	960
253952	1792	1360
258048	2144	1520
262144	3504	2768
270336	3216	2320
278528	4016	2960
286720	3584	2576
294912	3648	2576
303104	3920	2880
311296	3520	2320
319488	2912	2096
327680	3040	2176
335872	3456	2496
344064	3856	2928
352256	3168	2384
360448	3344	2288
368640	3472	2352
376832	2880	1904
385024	3232	2272
393216	3296	2256
401408	2720	1776
409600	3712	2944
417792	2960	2096
425984	3376	2336
434176	3280	2480
442368	3184	2560
450560	3168	1984
458752	3440	2208
466944	3024	2016
475136	2944	1888
483328	3008	2160
491520	2992	2272
499712	3264	2320
507904	3136	2112
516096	3264	2192
524288	6720	4512
540672	5744	4032
557056	5456	3904
573440	5616	3744
589824	6112	4240
606208	5904	3920
622592	5776	4096
638976	5136	3376
655360	5344	3856
671744	5008	3520
688128	4976	3488
704512	4848	3328
720896	5008	3104
737280	6192	4320
753664	4656	2832
770048	4576	3088
786432	5152	3520
802816	5088	3312
819200	5536	3792
835584	5168	3312
851968	4192	2528
868352	4928	3072
884736	4336	2704
901120	4336	2560
917504	4336	2752
933888	5808	3664
950272	4656	3008
966656	4384	2960
983040	4496	2592
999424	5280	3600
1015808	4144	2416
1032192	4288	2672
1048576	9168	5808
1081344	9264	5856
1114112	9600	5808
1146880	10144	6656
1179648	8336	5104
1212416	7536	4464
1245184	8064	4608
1277952	8752	5520
1310720	8768	5360
1343488	8240	4656
1376256	8928	5120
1409024	8256	4688
1441792	8640	4992
1474560	7600	4736
1507328	6960	3840
1540096	7744	5008
1572864	6256	3584
1605632	7136	4128
1638400	8640	4496
1671168	9168	5520
1703936	7472	4400
1736704	6320	3424
1769472	7008	3744
1802240	6304	3472
1835008	6992	4384
1867776	7440	4256
1900544	6240	3552
1933312	6688	3200
1966080	7552	4736
1998848	6816	3936
2031616	5920	3552
2064384	5616	2896
2097152	12096	7008
2162688	11424	6016
2228224	11312	6000
2293760	11184	6464
2359296	10272	5440
2424832	12080	7008
2490368	10992	5936
2555904	10784	5792
2621440	11472	6608
2686976	11264	6560
2752512	11008	5920
2818048	10352	5760
2883584	11088	6320
2949120	11856	6736
3014656	9504	4768
3080192	10304	5040
3145728	10528	5168
3211264	10208	4544
3276800	12224	5184
3342336	11840	4864
3407872	12496	5184
3473408	13952	5984
3538944	13360	4368
3604480	12864	4496
3670016	16784	4896
3735552	14976	4176
3801088	16816	5360
3866624	13888	4544
3932160	11424	3680
3997696	12320	4000
4063232	12480	3552
4128768	10560	3664
4194304	21328	7088
4325376	20768	7072
4456448	23520	7136
4587520	21312	6176
4718592	20976	6528
4849664	17104	6352
4980736	19952	6896
5111808	21696	5424
5242880	27472	6128
5373952	26560	5408
5505024	30944	5808
5636096	24032	5024
5767168	21424	5584
5898240	21600	5200
6029312	19040	5200
6160384	15488	5360
6291456	10288	3792
6422528	10480	3632
6553600	13712	4720
6684672	13264	4032
6815744	12304	3776
6946816	18944	3440
7077888	14592	3744
7208960	14288	3264
7340032	9936	3504
7471104	8832	3376
7602176	9408	2976
7733248	9760	3328
7864320	8960	3248
7995392	10048	3616
8126464	7888	2896
8257536	7728	2992
8388608	16176	5728
8650752	22272	5728
8912896	19088	6016
9175040	15760	4432
9437184	16816	4848
9699328	18784	4144
9961472	17584	3920
10223616	14960	3888
10485760	16848	4544
10747904	21520	3520
11010048	13776	3952
11272192	12560	4224
11534336	9488	3872
11796480	10768	2944
12058624	29488	2768
12320768	40560	3984
12582912	19856	2176
12845056	23744	2016
13107200	22192	2064
13369344	10624	1488
13631488	8944	1456
13893632	8896	1616
14155776	7424	1232
14417920	11968	1232
14680064	13248	1152
14942208	15472	784
15204352	14144	1296
15466496	14016	672
15728640	13024	880
15990784	9760	736
16252928	12272	720
16515072	61984	736
16777216	25984	1776
17301504	23312	1984
17825792	32960	1520
18350080	28208	2288
18874368	29904	2224
19398656	31824	1648
19922944	50336	1744
20447232	32480	1680
20971520	23296	1568
21495808	12384	1360
22020096	14048	1520
22544384	29136	1040
23068672	21232	1680
23592960	6816	1264
24117248	29008	880
24641536	41344	624
25165824	52560	848
25690112	29792	880
26214400	32528	784
26738688	25088	752
27262976	2736	752
27787264	1936	816
28311552	2512	1296
28835840	2400	1168
29360128	8272	1072
29884416	7600	1168
30408704	12016	1120
30932992	4048	1424
31457280	2480	1232
31981568	2528	1440
32505856	2640	1200
33030144	14576	1248
33554432	38032	2736
34603008	8960	4144
35651584	9200	4704
36700160	8112	4048
37748736	25840	4960
38797312	8800	4256
39845888	9632	2688
40894464	4336	2128
41943040	2512	1440
42991616	1856	1088
44040192	2144	1328
45088768	3168	1184
46137344	6640	656
47185920	2192	176
48234496	576	80
49283072	592	288
50331648	6288	320
51380224	4336	224
52428800	6224	176
53477376	6464	64
54525952	25536	176
55574528	33296	304
56623104	17632	496
57671680	14400	144
58720256	3696	96
59768832	27168	16
60817408	4224	0
61865984	176	0
62914560	112	0
63963136	224	0
65011712	32	32
66060288	0	0
67108864	0	0
69206016	48	32
71303168	48	16
73400320	208	48
75497472	576	32
77594624	464	96
79691776	384	0
81788928	20336	112
83886080	1248	64
85983232	256	16
88080384	80	0
90177536	0	0
92274688	0	0
94371840	16	0
96468992	32	32
98566144	32	16
100663296	0	0
102760448	48	32
104857600	16	16
106954752	96	96
109051904	336	32
111149056	208	0
113246208	1360	16
115343360	15600	0
117440512	768	176
119537664	368	0
121634816	64	0
123731968	0	0
125829120	0	0
127926272	0	0
130023424	0	0
132120576	0	0
134217728	64	64
138412032	480	128
142606336	768	16
146800640	2384	480
150994944	272	96
155189248	608	0
159383552	1696	16
163577856	224	0
167772160	896	16
171966464	69392	16
176160768	6560	0
180355072	0	0
184549376	0	0
188743680	0	0
192937984	16	0
197132288	48	0
201326592	0	0
205520896	0	0
209715200	0	0
213909504	0	0
218103808	0	0
222298112	0	0
226492416	0	0
230686720	0	0
234881024	0	0
239075328	0	0
243269632	0	0
247463936	0	0
251658240	0	0
255852544	0	0
260046848	0	0
264241152	0	0
268435456	0	0
276824064	0	0
285212672	0	0
293601280	0	0
301989888	0	0
310378496	0	0
318767104	0	0
327155712	0	0
335544320	0	0
343932928	0	0
352321536	0	0
360710144	0	0
369098752	0	0
377487360	0	0
385875968	0	0
394264576	0	0
402653184	0	0
411041792	0	0
419430400	0	0
427819008	0	0
436207616	0	0
444596224	0	0
452984832	0	0
461373440	0	0
469762048	0	0
478150656	0	0
486539264	0	0
494927872	0	0
503316480	0	0
511705088	0	0
520093696	0	0
528482304	0	0
536870912	0	0
553648128	0	0
570425344	0	0
587202560	0	0
603979776	0	0
620756992	0	0
637534208	0	0
654311424	0	0
671088640	0	0
687865856	0	0
704643072	0	0
721420288	0	0
738197504	0	0
754974720	0	0
771751936	0	0
788529152	0	0
805306368	0	0
822083584	0	0
838860800	0	0
855638016	0	0
872415232	0	0
889192448	0	0
905969664	0	0
922746880	0	0
939524096	0	0
956301312	0	0
973078528	0	0
989855744	0	0
1006632960	0	0
1023410176	0	0
1040187392	0	0
1056964608	0	0
1073741824	0	0
1107296256	0	0
1140850688	0	0
1174405120	0	0
1207959552	0	0
1241513984	0	0
1275068416	0	0
1308622848	0	0
1342177280	0	0
1375731712	0	0
1409286144	0	0
1442840576	0	0
1476395008	0	0
1509949440	0	0
1543503872	0	0
1577058304	0	0
1610612736	0	0
1644167168	0	0
1677721600	0	0
1711276032	0	0
1744830464	0	0
1778384896	0	0
1811939328	0	0
1845493760	0	0
1879048192	0	0
1912602624	0	0
1946157056	0	0
1979711488	0	0
2013265920	0	0
2046820352	0	0
2080374784	0	0
2113929216	0	0
2147483648	0	0
2214592512	0	0
2281701376	0	0
2348810240	0	0
2415919104	0	0
2483027968	0	0
2550136832	0	0
2617245696	0	0
2684354560	0	0
2751463424	0	0
2818572288	0	0
2885681152	0	0
2952790016	0	0
3019898880	0	0
3087007744	0	0
3154116608	0	0
3221225472	0	0
3288334336	0	0
3355443200	0	0
3422552064	0	0
3489660928	0	0
3556769792	0	0
3623878656	0	0
3690987520	0	0
3758096384	0	0
3825205248	0	0
3892314112	0	0
3959422976	0	0
4026531840	0	0
4093640704	0	0
4160749568	0	0
4227858432	0	0
~~~~~~~~~~Reuse Distance Profiler output end~~~~~~~~~~

DRAM Statistics
 CHANNEL 0
 RQ ROW_BUFFER_HIT:     889227  ROW_BUFFER_MISS:    1139620
 DBUS AVG_CONGESTED_CYCLE:      3.968
 WQ ROW_BUFFER_HIT:     270312  ROW_BUFFER_MISS:    1684313  FULL:          0


CPU 0 Branch Prediction Accuracy: 96.9246% MPKI: 8.96087 Average ROB Occupancy at Mispredict: 36.2581
Branch type MPKI
BRANCH_DIRECT_JUMP: 4.66667e-06
BRANCH_INDIRECT: 0.374163
BRANCH_CONDITIONAL: 7.09371
BRANCH_DIRECT_CALL: 0.000236
BRANCH_INDIRECT_CALL: 0.292479
BRANCH_RETURN: 1.20028

