
*** ChampSim Multicore Out-of-Order Simulator ***

Warmup Instructions: 500000000
Simulation Instructions: 1500000000
Number of CPUs: 1
Off-chip DRAM Size: 4 GiB Channels: 1 Width: 64-bit Data Rate: 3200 MT/s

VirtualMemory physical capacity: 8588881920 num_ppages: 2096895
VirtualMemory page size: 4096 log2_page_size: 12

CPU 0 runs traces/623.xalancbmk_s-202B.champsimtrace.xz
CPU 0 Bimodal branch predictor
Basic BTB sets: 1024 ways: 8 indirect buffer size: 4096 RAS size: 64
Initializing LRU.
Initializing LRU.
Initializing LRU.
Initializing LRU.
Initializing rdLRU.
Initializing LRU.
Initializing LRU.
Heartbeat CPU 0 instructions: 10000004 cycles: 2812408 heartbeat IPC: 3.55567 cumulative IPC: 3.55567 (Simulation time: 0 hr 0 min 55 sec) 
Heartbeat CPU 0 instructions: 20000001 cycles: 5623169 heartbeat IPC: 3.55775 cumulative IPC: 3.55671 (Simulation time: 0 hr 1 min 43 sec) 
Heartbeat CPU 0 instructions: 30000001 cycles: 8434891 heartbeat IPC: 3.55654 cumulative IPC: 3.55666 (Simulation time: 0 hr 2 min 27 sec) 
Heartbeat CPU 0 instructions: 40000003 cycles: 11246471 heartbeat IPC: 3.55672 cumulative IPC: 3.55667 (Simulation time: 0 hr 3 min 28 sec) 
Heartbeat CPU 0 instructions: 50000004 cycles: 14059330 heartbeat IPC: 3.5551 cumulative IPC: 3.55636 (Simulation time: 0 hr 4 min 18 sec) 
Heartbeat CPU 0 instructions: 60000003 cycles: 16872326 heartbeat IPC: 3.55493 cumulative IPC: 3.55612 (Simulation time: 0 hr 5 min 11 sec) 
Heartbeat CPU 0 instructions: 70000003 cycles: 19685582 heartbeat IPC: 3.5546 cumulative IPC: 3.5559 (Simulation time: 0 hr 6 min 5 sec) 
Heartbeat CPU 0 instructions: 80000004 cycles: 22498978 heartbeat IPC: 3.55442 cumulative IPC: 3.55572 (Simulation time: 0 hr 6 min 58 sec) 
Heartbeat CPU 0 instructions: 90000004 cycles: 25309790 heartbeat IPC: 3.55769 cumulative IPC: 3.55594 (Simulation time: 0 hr 7 min 49 sec) 
Heartbeat CPU 0 instructions: 100000001 cycles: 28122488 heartbeat IPC: 3.5553 cumulative IPC: 3.55587 (Simulation time: 0 hr 9 min 2 sec) 
Heartbeat CPU 0 instructions: 110000001 cycles: 30932819 heartbeat IPC: 3.5583 cumulative IPC: 3.55609 (Simulation time: 0 hr 9 min 48 sec) 
Heartbeat CPU 0 instructions: 120000001 cycles: 33743470 heartbeat IPC: 3.55789 cumulative IPC: 3.55624 (Simulation time: 0 hr 10 min 29 sec) 
Heartbeat CPU 0 instructions: 130000001 cycles: 36556967 heartbeat IPC: 3.5543 cumulative IPC: 3.55609 (Simulation time: 0 hr 11 min 10 sec) 
Heartbeat CPU 0 instructions: 140000001 cycles: 39371368 heartbeat IPC: 3.55315 cumulative IPC: 3.55588 (Simulation time: 0 hr 12 min 21 sec) 
Heartbeat CPU 0 instructions: 150000001 cycles: 42184388 heartbeat IPC: 3.5549 cumulative IPC: 3.55582 (Simulation time: 0 hr 13 min 18 sec) 
Heartbeat CPU 0 instructions: 160000003 cycles: 44995559 heartbeat IPC: 3.55724 cumulative IPC: 3.55591 (Simulation time: 0 hr 14 min 13 sec) 
Heartbeat CPU 0 instructions: 170000002 cycles: 47807568 heartbeat IPC: 3.55618 cumulative IPC: 3.55592 (Simulation time: 0 hr 15 min 28 sec) 
Heartbeat CPU 0 instructions: 180000000 cycles: 50623402 heartbeat IPC: 3.55135 cumulative IPC: 3.55567 (Simulation time: 0 hr 16 min 25 sec) 
Heartbeat CPU 0 instructions: 190000000 cycles: 53434267 heartbeat IPC: 3.55762 cumulative IPC: 3.55577 (Simulation time: 0 hr 17 min 33 sec) 
Heartbeat CPU 0 instructions: 200000004 cycles: 56247990 heartbeat IPC: 3.55401 cumulative IPC: 3.55568 (Simulation time: 0 hr 18 min 49 sec) 
Heartbeat CPU 0 instructions: 210000004 cycles: 59058833 heartbeat IPC: 3.55765 cumulative IPC: 3.55578 (Simulation time: 0 hr 20 min 0 sec) 
Heartbeat CPU 0 instructions: 220000000 cycles: 61871533 heartbeat IPC: 3.5553 cumulative IPC: 3.55575 (Simulation time: 0 hr 20 min 46 sec) 
Heartbeat CPU 0 instructions: 230000003 cycles: 64680877 heartbeat IPC: 3.55955 cumulative IPC: 3.55592 (Simulation time: 0 hr 21 min 29 sec) 
Heartbeat CPU 0 instructions: 240000003 cycles: 67490143 heartbeat IPC: 3.55965 cumulative IPC: 3.55607 (Simulation time: 0 hr 22 min 12 sec) 
Heartbeat CPU 0 instructions: 250000004 cycles: 70301622 heartbeat IPC: 3.55685 cumulative IPC: 3.55611 (Simulation time: 0 hr 23 min 1 sec) 
Heartbeat CPU 0 instructions: 260000001 cycles: 73114016 heartbeat IPC: 3.55569 cumulative IPC: 3.55609 (Simulation time: 0 hr 24 min 3 sec) 
Heartbeat CPU 0 instructions: 270000003 cycles: 75928140 heartbeat IPC: 3.5535 cumulative IPC: 3.55599 (Simulation time: 0 hr 24 min 51 sec) 
Heartbeat CPU 0 instructions: 280000003 cycles: 78740741 heartbeat IPC: 3.55543 cumulative IPC: 3.55597 (Simulation time: 0 hr 25 min 43 sec) 
Heartbeat CPU 0 instructions: 290000001 cycles: 81550378 heartbeat IPC: 3.55918 cumulative IPC: 3.55608 (Simulation time: 0 hr 26 min 37 sec) 
Heartbeat CPU 0 instructions: 300000000 cycles: 84363900 heartbeat IPC: 3.55426 cumulative IPC: 3.55602 (Simulation time: 0 hr 27 min 50 sec) 
Heartbeat CPU 0 instructions: 310000000 cycles: 87175746 heartbeat IPC: 3.55638 cumulative IPC: 3.55604 (Simulation time: 0 hr 29 min 4 sec) 
Heartbeat CPU 0 instructions: 320000003 cycles: 89986722 heartbeat IPC: 3.55748 cumulative IPC: 3.55608 (Simulation time: 0 hr 30 min 19 sec) 
Heartbeat CPU 0 instructions: 330000004 cycles: 92799466 heartbeat IPC: 3.55525 cumulative IPC: 3.55606 (Simulation time: 0 hr 31 min 28 sec) 
Heartbeat CPU 0 instructions: 340000001 cycles: 95610405 heartbeat IPC: 3.55753 cumulative IPC: 3.5561 (Simulation time: 0 hr 32 min 26 sec) 
Heartbeat CPU 0 instructions: 350000001 cycles: 98420577 heartbeat IPC: 3.5585 cumulative IPC: 3.55617 (Simulation time: 0 hr 33 min 41 sec) 
Heartbeat CPU 0 instructions: 360000002 cycles: 101231927 heartbeat IPC: 3.55701 cumulative IPC: 3.55619 (Simulation time: 0 hr 34 min 45 sec) 
Heartbeat CPU 0 instructions: 370000004 cycles: 104045503 heartbeat IPC: 3.5542 cumulative IPC: 3.55614 (Simulation time: 0 hr 35 min 53 sec) 
Heartbeat CPU 0 instructions: 380000002 cycles: 106860308 heartbeat IPC: 3.55264 cumulative IPC: 3.55604 (Simulation time: 0 hr 37 min 7 sec) 
Heartbeat CPU 0 instructions: 390000000 cycles: 109674910 heartbeat IPC: 3.5529 cumulative IPC: 3.55596 (Simulation time: 0 hr 38 min 22 sec) 
Heartbeat CPU 0 instructions: 400000001 cycles: 112487576 heartbeat IPC: 3.55535 cumulative IPC: 3.55595 (Simulation time: 0 hr 39 min 37 sec) 
Heartbeat CPU 0 instructions: 410000004 cycles: 115300628 heartbeat IPC: 3.55486 cumulative IPC: 3.55592 (Simulation time: 0 hr 40 min 53 sec) 
Heartbeat CPU 0 instructions: 420000002 cycles: 118100782 heartbeat IPC: 3.57123 cumulative IPC: 3.55628 (Simulation time: 0 hr 42 min 8 sec) 
Heartbeat CPU 0 instructions: 430000002 cycles: 120885761 heartbeat IPC: 3.59069 cumulative IPC: 3.55708 (Simulation time: 0 hr 43 min 22 sec) 
Heartbeat CPU 0 instructions: 440000001 cycles: 123672219 heartbeat IPC: 3.58879 cumulative IPC: 3.55779 (Simulation time: 0 hr 44 min 37 sec) 
Heartbeat CPU 0 instructions: 450000001 cycles: 126459194 heartbeat IPC: 3.58812 cumulative IPC: 3.55846 (Simulation time: 0 hr 45 min 51 sec) 
Heartbeat CPU 0 instructions: 460000001 cycles: 129246464 heartbeat IPC: 3.58774 cumulative IPC: 3.55909 (Simulation time: 0 hr 47 min 6 sec) 
Heartbeat CPU 0 instructions: 470000004 cycles: 132037553 heartbeat IPC: 3.58283 cumulative IPC: 3.55959 (Simulation time: 0 hr 48 min 21 sec) 
Heartbeat CPU 0 instructions: 480000002 cycles: 134832120 heartbeat IPC: 3.57837 cumulative IPC: 3.55998 (Simulation time: 0 hr 49 min 9 sec) 
Heartbeat CPU 0 instructions: 490000002 cycles: 137626690 heartbeat IPC: 3.57837 cumulative IPC: 3.56036 (Simulation time: 0 hr 49 min 50 sec) 
Heartbeat CPU 0 instructions: 500000000 cycles: 140421117 heartbeat IPC: 3.57855 cumulative IPC: 3.56072 (Simulation time: 0 hr 50 min 31 sec) 

Warmup complete CPU 0 instructions: 500000005 cycles: 140421121 (Simulation time: 0 hr 50 min 31 sec) 

Heartbeat CPU 0 instructions: 510000001 cycles: 153702812 heartbeat IPC: 0.752916 cumulative IPC: 0.752916 (Simulation time: 0 hr 51 min 6 sec) 
Heartbeat CPU 0 instructions: 520000000 cycles: 167131961 heartbeat IPC: 0.744649 cumulative IPC: 0.74876 (Simulation time: 0 hr 51 min 42 sec) 
Heartbeat CPU 0 instructions: 530000001 cycles: 180721552 heartbeat IPC: 0.735857 cumulative IPC: 0.744409 (Simulation time: 0 hr 52 min 18 sec) 
Heartbeat CPU 0 instructions: 540000002 cycles: 194477357 heartbeat IPC: 0.726966 cumulative IPC: 0.73997 (Simulation time: 0 hr 53 min 2 sec) 
Heartbeat CPU 0 instructions: 550000000 cycles: 208305924 heartbeat IPC: 0.723141 cumulative IPC: 0.736542 (Simulation time: 0 hr 53 min 39 sec) 
Heartbeat CPU 0 instructions: 560000000 cycles: 222170651 heartbeat IPC: 0.721255 cumulative IPC: 0.733949 (Simulation time: 0 hr 54 min 20 sec) 
Heartbeat CPU 0 instructions: 570000003 cycles: 236122125 heartbeat IPC: 0.71677 cumulative IPC: 0.731445 (Simulation time: 0 hr 55 min 5 sec) 
Heartbeat CPU 0 instructions: 580000000 cycles: 250144443 heartbeat IPC: 0.713149 cumulative IPC: 0.729107 (Simulation time: 0 hr 56 min 3 sec) 
Heartbeat CPU 0 instructions: 590000003 cycles: 264246346 heartbeat IPC: 0.709124 cumulative IPC: 0.726831 (Simulation time: 0 hr 56 min 58 sec) 
Heartbeat CPU 0 instructions: 600000003 cycles: 278395481 heartbeat IPC: 0.706757 cumulative IPC: 0.724772 (Simulation time: 0 hr 57 min 49 sec) 
Heartbeat CPU 0 instructions: 610000000 cycles: 292614240 heartbeat IPC: 0.703296 cumulative IPC: 0.722766 (Simulation time: 0 hr 58 min 45 sec) 
Heartbeat CPU 0 instructions: 620000001 cycles: 306984861 heartbeat IPC: 0.695864 cumulative IPC: 0.720445 (Simulation time: 0 hr 59 min 29 sec) 
Heartbeat CPU 0 instructions: 630000000 cycles: 321536186 heartbeat IPC: 0.687223 cumulative IPC: 0.717776 (Simulation time: 1 hr 0 min 22 sec) 
Heartbeat CPU 0 instructions: 640000000 cycles: 336124095 heartbeat IPC: 0.685499 cumulative IPC: 0.71537 (Simulation time: 1 hr 1 min 5 sec) 
Heartbeat CPU 0 instructions: 650000000 cycles: 350725926 heartbeat IPC: 0.684846 cumulative IPC: 0.71325 (Simulation time: 1 hr 2 min 14 sec) 
Heartbeat CPU 0 instructions: 660000000 cycles: 365365978 heartbeat IPC: 0.683058 cumulative IPC: 0.711285 (Simulation time: 1 hr 3 min 22 sec) 
Heartbeat CPU 0 instructions: 670000001 cycles: 380033037 heartbeat IPC: 0.6818 cumulative IPC: 0.709481 (Simulation time: 1 hr 4 min 31 sec) 
Heartbeat CPU 0 instructions: 680000000 cycles: 394745632 heartbeat IPC: 0.67969 cumulative IPC: 0.707757 (Simulation time: 1 hr 5 min 39 sec) 
Heartbeat CPU 0 instructions: 690000002 cycles: 409448341 heartbeat IPC: 0.680147 cumulative IPC: 0.706248 (Simulation time: 1 hr 6 min 28 sec) 
Heartbeat CPU 0 instructions: 700000001 cycles: 424193594 heartbeat IPC: 0.678184 cumulative IPC: 0.70479 (Simulation time: 1 hr 7 min 6 sec) 
Heartbeat CPU 0 instructions: 710000001 cycles: 438977981 heartbeat IPC: 0.676389 cumulative IPC: 0.703384 (Simulation time: 1 hr 7 min 50 sec) 
Heartbeat CPU 0 instructions: 720000000 cycles: 453779581 heartbeat IPC: 0.675603 cumulative IPC: 0.702071 (Simulation time: 1 hr 8 min 54 sec) 
Heartbeat CPU 0 instructions: 730000000 cycles: 468619201 heartbeat IPC: 0.673872 cumulative IPC: 0.700796 (Simulation time: 1 hr 9 min 40 sec) 
Heartbeat CPU 0 instructions: 740000004 cycles: 483444043 heartbeat IPC: 0.674544 cumulative IPC: 0.699662 (Simulation time: 1 hr 10 min 18 sec) 
Heartbeat CPU 0 instructions: 750000001 cycles: 498268762 heartbeat IPC: 0.674549 cumulative IPC: 0.698621 (Simulation time: 1 hr 10 min 58 sec) 
Heartbeat CPU 0 instructions: 760000002 cycles: 513087509 heartbeat IPC: 0.674821 cumulative IPC: 0.697675 (Simulation time: 1 hr 12 min 1 sec) 
Heartbeat CPU 0 instructions: 770000000 cycles: 527911597 heartbeat IPC: 0.674578 cumulative IPC: 0.696791 (Simulation time: 1 hr 12 min 40 sec) 
Heartbeat CPU 0 instructions: 780000001 cycles: 542757120 heartbeat IPC: 0.673604 cumulative IPC: 0.695936 (Simulation time: 1 hr 13 min 21 sec) 
Heartbeat CPU 0 instructions: 790000004 cycles: 557590780 heartbeat IPC: 0.674143 cumulative IPC: 0.695161 (Simulation time: 1 hr 14 min 2 sec) 
Heartbeat CPU 0 instructions: 800000001 cycles: 572413757 heartbeat IPC: 0.674628 cumulative IPC: 0.694456 (Simulation time: 1 hr 14 min 45 sec) 
Heartbeat CPU 0 instructions: 810000002 cycles: 587242701 heartbeat IPC: 0.674357 cumulative IPC: 0.693789 (Simulation time: 1 hr 15 min 23 sec) 
Heartbeat CPU 0 instructions: 820000001 cycles: 602061813 heartbeat IPC: 0.674804 cumulative IPC: 0.69318 (Simulation time: 1 hr 16 min 17 sec) 
Heartbeat CPU 0 instructions: 830000001 cycles: 616896086 heartbeat IPC: 0.674115 cumulative IPC: 0.692586 (Simulation time: 1 hr 17 min 24 sec) 
Heartbeat CPU 0 instructions: 840000003 cycles: 631724177 heartbeat IPC: 0.674396 cumulative IPC: 0.692037 (Simulation time: 1 hr 18 min 17 sec) 
Heartbeat CPU 0 instructions: 850000000 cycles: 646548492 heartbeat IPC: 0.674567 cumulative IPC: 0.691526 (Simulation time: 1 hr 19 min 25 sec) 
Heartbeat CPU 0 instructions: 860000002 cycles: 661474568 heartbeat IPC: 0.669969 cumulative IPC: 0.690908 (Simulation time: 1 hr 20 min 4 sec) 
Heartbeat CPU 0 instructions: 870000001 cycles: 676466708 heartbeat IPC: 0.667016 cumulative IPC: 0.69024 (Simulation time: 1 hr 21 min 3 sec) 
Heartbeat CPU 0 instructions: 880000002 cycles: 691461759 heartbeat IPC: 0.666887 cumulative IPC: 0.689604 (Simulation time: 1 hr 21 min 41 sec) 
Heartbeat CPU 0 instructions: 890000001 cycles: 706468232 heartbeat IPC: 0.666379 cumulative IPC: 0.688989 (Simulation time: 1 hr 22 min 19 sec) 
Heartbeat CPU 0 instructions: 900000000 cycles: 721483507 heartbeat IPC: 0.665988 cumulative IPC: 0.688394 (Simulation time: 1 hr 22 min 57 sec) 
Heartbeat CPU 0 instructions: 910000000 cycles: 736476641 heartbeat IPC: 0.666972 cumulative IPC: 0.687855 (Simulation time: 1 hr 23 min 35 sec) 
Heartbeat CPU 0 instructions: 920000001 cycles: 751479291 heartbeat IPC: 0.666549 cumulative IPC: 0.687332 (Simulation time: 1 hr 24 min 19 sec) 
Heartbeat CPU 0 instructions: 930000004 cycles: 766467224 heartbeat IPC: 0.667204 cumulative IPC: 0.68685 (Simulation time: 1 hr 25 min 7 sec) 
Heartbeat CPU 0 instructions: 940000000 cycles: 781459003 heartbeat IPC: 0.667032 cumulative IPC: 0.686387 (Simulation time: 1 hr 26 min 10 sec) 
Heartbeat CPU 0 instructions: 950000000 cycles: 796479046 heartbeat IPC: 0.665777 cumulative IPC: 0.685915 (Simulation time: 1 hr 26 min 53 sec) 
Heartbeat CPU 0 instructions: 960000000 cycles: 811809347 heartbeat IPC: 0.652303 cumulative IPC: 0.685148 (Simulation time: 1 hr 27 min 32 sec) 
Heartbeat CPU 0 instructions: 970000002 cycles: 827328513 heartbeat IPC: 0.644365 cumulative IPC: 0.684226 (Simulation time: 1 hr 28 min 11 sec) 
Heartbeat CPU 0 instructions: 980000000 cycles: 842975531 heartbeat IPC: 0.639099 cumulative IPC: 0.683221 (Simulation time: 1 hr 28 min 50 sec) 
Heartbeat CPU 0 instructions: 990000002 cycles: 858642667 heartbeat IPC: 0.638279 cumulative IPC: 0.682241 (Simulation time: 1 hr 29 min 31 sec) 
Heartbeat CPU 0 instructions: 1000000003 cycles: 874304029 heartbeat IPC: 0.638514 cumulative IPC: 0.681308 (Simulation time: 1 hr 30 min 10 sec) 
Heartbeat CPU 0 instructions: 1010000001 cycles: 889953400 heartbeat IPC: 0.639003 cumulative IPC: 0.680424 (Simulation time: 1 hr 30 min 49 sec) 
Heartbeat CPU 0 instructions: 1020000002 cycles: 905590811 heartbeat IPC: 0.639492 cumulative IPC: 0.679588 (Simulation time: 1 hr 31 min 27 sec) 
Heartbeat CPU 0 instructions: 1030000002 cycles: 921355052 heartbeat IPC: 0.634347 cumulative IPC: 0.678675 (Simulation time: 1 hr 32 min 9 sec) 
Heartbeat CPU 0 instructions: 1040000001 cycles: 937317564 heartbeat IPC: 0.626468 cumulative IPC: 0.677629 (Simulation time: 1 hr 33 min 20 sec) 
Heartbeat CPU 0 instructions: 1050000000 cycles: 953494049 heartbeat IPC: 0.618181 cumulative IPC: 0.676446 (Simulation time: 1 hr 34 min 34 sec) 
Heartbeat CPU 0 instructions: 1060000002 cycles: 969756594 heartbeat IPC: 0.61491 cumulative IPC: 0.675239 (Simulation time: 1 hr 35 min 47 sec) 
Heartbeat CPU 0 instructions: 1070000001 cycles: 986025932 heartbeat IPC: 0.614653 cumulative IPC: 0.674074 (Simulation time: 1 hr 37 min 0 sec) 
Heartbeat CPU 0 instructions: 1080000001 cycles: 1002306807 heartbeat IPC: 0.614218 cumulative IPC: 0.672943 (Simulation time: 1 hr 37 min 54 sec) 
Heartbeat CPU 0 instructions: 1090000003 cycles: 1018571579 heartbeat IPC: 0.614826 cumulative IPC: 0.671867 (Simulation time: 1 hr 38 min 46 sec) 
Heartbeat CPU 0 instructions: 1100000002 cycles: 1034796973 heartbeat IPC: 0.616318 cumulative IPC: 0.670859 (Simulation time: 1 hr 39 min 49 sec) 
Heartbeat CPU 0 instructions: 1110000000 cycles: 1051028811 heartbeat IPC: 0.616073 cumulative IPC: 0.669882 (Simulation time: 1 hr 40 min 29 sec) 
Heartbeat CPU 0 instructions: 1120000002 cycles: 1067251873 heartbeat IPC: 0.616407 cumulative IPC: 0.668946 (Simulation time: 1 hr 41 min 26 sec) 
Heartbeat CPU 0 instructions: 1130000000 cycles: 1083456360 heartbeat IPC: 0.617113 cumulative IPC: 0.668056 (Simulation time: 1 hr 42 min 5 sec) 
Heartbeat CPU 0 instructions: 1140000002 cycles: 1099642423 heartbeat IPC: 0.617816 cumulative IPC: 0.667208 (Simulation time: 1 hr 42 min 45 sec) 
Heartbeat CPU 0 instructions: 1150000000 cycles: 1115813374 heartbeat IPC: 0.618393 cumulative IPC: 0.666399 (Simulation time: 1 hr 43 min 41 sec) 
Heartbeat CPU 0 instructions: 1160000001 cycles: 1131981262 heartbeat IPC: 0.61851 cumulative IPC: 0.665618 (Simulation time: 1 hr 44 min 22 sec) 
Heartbeat CPU 0 instructions: 1170000004 cycles: 1148150151 heartbeat IPC: 0.618472 cumulative IPC: 0.664861 (Simulation time: 1 hr 45 min 22 sec) 
Heartbeat CPU 0 instructions: 1180000002 cycles: 1164423147 heartbeat IPC: 0.614515 cumulative IPC: 0.664061 (Simulation time: 1 hr 46 min 35 sec) 
Heartbeat CPU 0 instructions: 1190000003 cycles: 1180957702 heartbeat IPC: 0.604794 cumulative IPC: 0.663119 (Simulation time: 1 hr 47 min 15 sec) 
Heartbeat CPU 0 instructions: 1200000004 cycles: 1197479754 heartbeat IPC: 0.605252 cumulative IPC: 0.662215 (Simulation time: 1 hr 47 min 56 sec) 
Heartbeat CPU 0 instructions: 1210000001 cycles: 1213985343 heartbeat IPC: 0.605855 cumulative IPC: 0.661348 (Simulation time: 1 hr 49 min 1 sec) 
Heartbeat CPU 0 instructions: 1220000000 cycles: 1230477714 heartbeat IPC: 0.606341 cumulative IPC: 0.660516 (Simulation time: 1 hr 49 min 45 sec) 
Heartbeat CPU 0 instructions: 1230000001 cycles: 1246996557 heartbeat IPC: 0.605369 cumulative IPC: 0.659693 (Simulation time: 1 hr 50 min 39 sec) 
Heartbeat CPU 0 instructions: 1240000004 cycles: 1263557101 heartbeat IPC: 0.603845 cumulative IPC: 0.658869 (Simulation time: 1 hr 51 min 34 sec) 
Heartbeat CPU 0 instructions: 1250000002 cycles: 1280077944 heartbeat IPC: 0.605296 cumulative IPC: 0.658093 (Simulation time: 1 hr 52 min 24 sec) 
Heartbeat CPU 0 instructions: 1260000002 cycles: 1296593341 heartbeat IPC: 0.605496 cumulative IPC: 0.657342 (Simulation time: 1 hr 53 min 13 sec) 
Heartbeat CPU 0 instructions: 1270000001 cycles: 1313124652 heartbeat IPC: 0.604913 cumulative IPC: 0.656602 (Simulation time: 1 hr 53 min 55 sec) 
Heartbeat CPU 0 instructions: 1280000003 cycles: 1329848119 heartbeat IPC: 0.597962 cumulative IPC: 0.655778 (Simulation time: 1 hr 54 min 46 sec) 
Heartbeat CPU 0 instructions: 1290000001 cycles: 1346646329 heartbeat IPC: 0.595301 cumulative IPC: 0.654936 (Simulation time: 1 hr 55 min 50 sec) 
Heartbeat CPU 0 instructions: 1300000001 cycles: 1363422233 heartbeat IPC: 0.596093 cumulative IPC: 0.654129 (Simulation time: 1 hr 56 min 42 sec) 
Heartbeat CPU 0 instructions: 1310000001 cycles: 1380178717 heartbeat IPC: 0.596784 cumulative IPC: 0.653354 (Simulation time: 1 hr 57 min 39 sec) 
Heartbeat CPU 0 instructions: 1320000001 cycles: 1396925514 heartbeat IPC: 0.597129 cumulative IPC: 0.652604 (Simulation time: 1 hr 58 min 22 sec) 
Heartbeat CPU 0 instructions: 1330000001 cycles: 1413689767 heartbeat IPC: 0.596507 cumulative IPC: 0.651866 (Simulation time: 1 hr 59 min 3 sec) 
Heartbeat CPU 0 instructions: 1340000001 cycles: 1430444499 heartbeat IPC: 0.596846 cumulative IPC: 0.651151 (Simulation time: 1 hr 59 min 45 sec) 
Heartbeat CPU 0 instructions: 1350000001 cycles: 1447323194 heartbeat IPC: 0.592463 cumulative IPC: 0.650393 (Simulation time: 2 hr 0 min 39 sec) 
Heartbeat CPU 0 instructions: 1360000000 cycles: 1464296559 heartbeat IPC: 0.589158 cumulative IPC: 0.649608 (Simulation time: 2 hr 1 min 21 sec) 
Heartbeat CPU 0 instructions: 1370000001 cycles: 1481257708 heartbeat IPC: 0.589583 cumulative IPC: 0.648849 (Simulation time: 2 hr 2 min 11 sec) 
Heartbeat CPU 0 instructions: 1380000000 cycles: 1498265528 heartbeat IPC: 0.587965 cumulative IPC: 0.648086 (Simulation time: 2 hr 2 min 59 sec) 
Heartbeat CPU 0 instructions: 1390000000 cycles: 1515387568 heartbeat IPC: 0.584043 cumulative IPC: 0.647289 (Simulation time: 2 hr 3 min 54 sec) 
Heartbeat CPU 0 instructions: 1400000003 cycles: 1532542825 heartbeat IPC: 0.582912 cumulative IPC: 0.646495 (Simulation time: 2 hr 4 min 36 sec) 
Heartbeat CPU 0 instructions: 1410000001 cycles: 1549698759 heartbeat IPC: 0.582889 cumulative IPC: 0.645721 (Simulation time: 2 hr 5 min 31 sec) 
Heartbeat CPU 0 instructions: 1420000000 cycles: 1566895492 heartbeat IPC: 0.581506 cumulative IPC: 0.644947 (Simulation time: 2 hr 6 min 13 sec) 
Heartbeat CPU 0 instructions: 1430000000 cycles: 1584168420 heartbeat IPC: 0.578941 cumulative IPC: 0.644157 (Simulation time: 2 hr 7 min 5 sec) 
Heartbeat CPU 0 instructions: 1440000001 cycles: 1601465117 heartbeat IPC: 0.578145 cumulative IPC: 0.643376 (Simulation time: 2 hr 7 min 51 sec) 
Heartbeat CPU 0 instructions: 1450000002 cycles: 1618757897 heartbeat IPC: 0.578276 cumulative IPC: 0.642614 (Simulation time: 2 hr 8 min 34 sec) 
Heartbeat CPU 0 instructions: 1460000001 cycles: 1636175875 heartbeat IPC: 0.574119 cumulative IPC: 0.641816 (Simulation time: 2 hr 9 min 17 sec) 
Heartbeat CPU 0 instructions: 1470000001 cycles: 1653629918 heartbeat IPC: 0.572933 cumulative IPC: 0.641022 (Simulation time: 2 hr 10 min 7 sec) 
Heartbeat CPU 0 instructions: 1480000002 cycles: 1671143784 heartbeat IPC: 0.570976 cumulative IPC: 0.64022 (Simulation time: 2 hr 11 min 1 sec) 
Heartbeat CPU 0 instructions: 1490000001 cycles: 1688771835 heartbeat IPC: 0.567278 cumulative IPC: 0.63939 (Simulation time: 2 hr 12 min 19 sec) 
Heartbeat CPU 0 instructions: 1500000001 cycles: 1706497870 heartbeat IPC: 0.564142 cumulative IPC: 0.638538 (Simulation time: 2 hr 13 min 37 sec) 
Heartbeat CPU 0 instructions: 1510000000 cycles: 1724327427 heartbeat IPC: 0.560866 cumulative IPC: 0.637664 (Simulation time: 2 hr 14 min 55 sec) 
Heartbeat CPU 0 instructions: 1520000000 cycles: 1742124043 heartbeat IPC: 0.561905 cumulative IPC: 0.636822 (Simulation time: 2 hr 15 min 48 sec) 
Heartbeat CPU 0 instructions: 1530000003 cycles: 1759948326 heartbeat IPC: 0.561033 cumulative IPC: 0.635988 (Simulation time: 2 hr 16 min 36 sec) 
Heartbeat CPU 0 instructions: 1540000001 cycles: 1777926121 heartbeat IPC: 0.556242 cumulative IPC: 0.635113 (Simulation time: 2 hr 17 min 18 sec) 
Heartbeat CPU 0 instructions: 1550000000 cycles: 1795947359 heartbeat IPC: 0.554901 cumulative IPC: 0.634239 (Simulation time: 2 hr 18 min 3 sec) 
Heartbeat CPU 0 instructions: 1560000002 cycles: 1814048468 heartbeat IPC: 0.552452 cumulative IPC: 0.633355 (Simulation time: 2 hr 19 min 16 sec) 
Heartbeat CPU 0 instructions: 1570000001 cycles: 1832167456 heartbeat IPC: 0.551907 cumulative IPC: 0.632483 (Simulation time: 2 hr 20 min 35 sec) 
Heartbeat CPU 0 instructions: 1580000000 cycles: 1850495480 heartbeat IPC: 0.545613 cumulative IPC: 0.631552 (Simulation time: 2 hr 21 min 51 sec) 
Heartbeat CPU 0 instructions: 1590000000 cycles: 1868907197 heartbeat IPC: 0.543132 cumulative IPC: 0.63061 (Simulation time: 2 hr 22 min 35 sec) 
Heartbeat CPU 0 instructions: 1600000002 cycles: 1887385741 heartbeat IPC: 0.541168 cumulative IPC: 0.629664 (Simulation time: 2 hr 23 min 18 sec) 
Heartbeat CPU 0 instructions: 1610000001 cycles: 1905854771 heartbeat IPC: 0.541447 cumulative IPC: 0.628741 (Simulation time: 2 hr 24 min 2 sec) 
Heartbeat CPU 0 instructions: 1620000001 cycles: 1924298498 heartbeat IPC: 0.54219 cumulative IPC: 0.627846 (Simulation time: 2 hr 25 min 5 sec) 
Heartbeat CPU 0 instructions: 1630000000 cycles: 1942796963 heartbeat IPC: 0.540585 cumulative IPC: 0.62695 (Simulation time: 2 hr 25 min 49 sec) 
Heartbeat CPU 0 instructions: 1640000003 cycles: 1961472063 heartbeat IPC: 0.535473 cumulative IPC: 0.626012 (Simulation time: 2 hr 26 min 37 sec) 
Heartbeat CPU 0 instructions: 1650000000 cycles: 1980150794 heartbeat IPC: 0.535368 cumulative IPC: 0.625092 (Simulation time: 2 hr 27 min 34 sec) 
Heartbeat CPU 0 instructions: 1660000000 cycles: 1998930174 heartbeat IPC: 0.532499 cumulative IPC: 0.624156 (Simulation time: 2 hr 28 min 31 sec) 
Heartbeat CPU 0 instructions: 1670000003 cycles: 2017740293 heartbeat IPC: 0.531629 cumulative IPC: 0.623229 (Simulation time: 2 hr 29 min 25 sec) 
Heartbeat CPU 0 instructions: 1680000002 cycles: 2036692378 heartbeat IPC: 0.527646 cumulative IPC: 0.622274 (Simulation time: 2 hr 30 min 8 sec) 
Heartbeat CPU 0 instructions: 1690000000 cycles: 2055660454 heartbeat IPC: 0.527201 cumulative IPC: 0.621332 (Simulation time: 2 hr 30 min 51 sec) 
Heartbeat CPU 0 instructions: 1700000000 cycles: 2074623289 heartbeat IPC: 0.527347 cumulative IPC: 0.620411 (Simulation time: 2 hr 31 min 34 sec) 
Heartbeat CPU 0 instructions: 1710000001 cycles: 2093562627 heartbeat IPC: 0.528002 cumulative IPC: 0.619515 (Simulation time: 2 hr 32 min 17 sec) 
Heartbeat CPU 0 instructions: 1720000004 cycles: 2112576290 heartbeat IPC: 0.525938 cumulative IPC: 0.618613 (Simulation time: 2 hr 33 min 1 sec) 
Heartbeat CPU 0 instructions: 1730000002 cycles: 2131628935 heartbeat IPC: 0.524861 cumulative IPC: 0.617716 (Simulation time: 2 hr 33 min 45 sec) 
Heartbeat CPU 0 instructions: 1740000000 cycles: 2150684611 heartbeat IPC: 0.524778 cumulative IPC: 0.616835 (Simulation time: 2 hr 34 min 29 sec) 
Heartbeat CPU 0 instructions: 1750000003 cycles: 2169749339 heartbeat IPC: 0.524529 cumulative IPC: 0.615967 (Simulation time: 2 hr 35 min 12 sec) 
Heartbeat CPU 0 instructions: 1760000004 cycles: 2188870513 heartbeat IPC: 0.522981 cumulative IPC: 0.615099 (Simulation time: 2 hr 35 min 57 sec) 
Heartbeat CPU 0 instructions: 1770000000 cycles: 2207966704 heartbeat IPC: 0.523664 cumulative IPC: 0.614255 (Simulation time: 2 hr 36 min 40 sec) 
Heartbeat CPU 0 instructions: 1780000000 cycles: 2227136258 heartbeat IPC: 0.521661 cumulative IPC: 0.613404 (Simulation time: 2 hr 37 min 23 sec) 
Heartbeat CPU 0 instructions: 1790000001 cycles: 2246648015 heartbeat IPC: 0.512512 cumulative IPC: 0.61247 (Simulation time: 2 hr 38 min 8 sec) 
Heartbeat CPU 0 instructions: 1800000002 cycles: 2266220347 heartbeat IPC: 0.510925 cumulative IPC: 0.611535 (Simulation time: 2 hr 39 min 14 sec) 
Heartbeat CPU 0 instructions: 1810000000 cycles: 2285834530 heartbeat IPC: 0.509835 cumulative IPC: 0.610605 (Simulation time: 2 hr 40 min 38 sec) 
Heartbeat CPU 0 instructions: 1820000000 cycles: 2305418330 heartbeat IPC: 0.510626 cumulative IPC: 0.609701 (Simulation time: 2 hr 42 min 2 sec) 
Heartbeat CPU 0 instructions: 1830000000 cycles: 2325050761 heartbeat IPC: 0.509361 cumulative IPC: 0.608799 (Simulation time: 2 hr 42 min 46 sec) 
Heartbeat CPU 0 instructions: 1840000001 cycles: 2344767318 heartbeat IPC: 0.507188 cumulative IPC: 0.60789 (Simulation time: 2 hr 43 min 37 sec) 
Heartbeat CPU 0 instructions: 1850000004 cycles: 2364570883 heartbeat IPC: 0.50496 cumulative IPC: 0.606974 (Simulation time: 2 hr 45 min 0 sec) 
Heartbeat CPU 0 instructions: 1860000000 cycles: 2384412546 heartbeat IPC: 0.50399 cumulative IPC: 0.606063 (Simulation time: 2 hr 45 min 45 sec) 
Heartbeat CPU 0 instructions: 1870000000 cycles: 2404220963 heartbeat IPC: 0.504836 cumulative IPC: 0.605177 (Simulation time: 2 hr 46 min 30 sec) 
Heartbeat CPU 0 instructions: 1880000000 cycles: 2424084175 heartbeat IPC: 0.503443 cumulative IPC: 0.604292 (Simulation time: 2 hr 47 min 18 sec) 
Heartbeat CPU 0 instructions: 1890000002 cycles: 2443979774 heartbeat IPC: 0.502624 cumulative IPC: 0.603414 (Simulation time: 2 hr 48 min 4 sec) 
Heartbeat CPU 0 instructions: 1900000000 cycles: 2464021892 heartbeat IPC: 0.498949 cumulative IPC: 0.602513 (Simulation time: 2 hr 48 min 50 sec) 
Heartbeat CPU 0 instructions: 1910000002 cycles: 2484074496 heartbeat IPC: 0.498688 cumulative IPC: 0.601625 (Simulation time: 2 hr 49 min 38 sec) 
Heartbeat CPU 0 instructions: 1920000004 cycles: 2504136851 heartbeat IPC: 0.498446 cumulative IPC: 0.600749 (Simulation time: 2 hr 50 min 25 sec) 
Heartbeat CPU 0 instructions: 1930000002 cycles: 2524225398 heartbeat IPC: 0.497796 cumulative IPC: 0.599881 (Simulation time: 2 hr 51 min 14 sec) 
Heartbeat CPU 0 instructions: 1940000002 cycles: 2544344872 heartbeat IPC: 0.497031 cumulative IPC: 0.599021 (Simulation time: 2 hr 52 min 13 sec) 
Heartbeat CPU 0 instructions: 1950000002 cycles: 2564632114 heartbeat IPC: 0.492921 cumulative IPC: 0.598133 (Simulation time: 2 hr 53 min 4 sec) 
Heartbeat CPU 0 instructions: 1960000000 cycles: 2584963826 heartbeat IPC: 0.491842 cumulative IPC: 0.597249 (Simulation time: 2 hr 53 min 54 sec) 
Heartbeat CPU 0 instructions: 1970000002 cycles: 2605288531 heartbeat IPC: 0.492012 cumulative IPC: 0.596381 (Simulation time: 2 hr 54 min 46 sec) 
Heartbeat CPU 0 instructions: 1980000002 cycles: 2625690842 heartbeat IPC: 0.490141 cumulative IPC: 0.595509 (Simulation time: 2 hr 55 min 37 sec) 
Heartbeat CPU 0 instructions: 1990000002 cycles: 2646195257 heartbeat IPC: 0.4877 cumulative IPC: 0.594627 (Simulation time: 2 hr 56 min 29 sec) 
*** Reached end of trace: traces/623.xalancbmk_s-202B.champsimtrace.xz
Heartbeat CPU 0 instructions: 2000000000 cycles: 2666942236 heartbeat IPC: 0.481998 cumulative IPC: 0.593702 (Simulation time: 2 hr 57 min 19 sec) 
Finished CPU 0 instructions: 1500000002 cycles: 2526521538 cumulative IPC: 0.593702 (Simulation time: 2 hr 57 min 19 sec) 

ChampSim completed all CPUs

Region of Interest Statistics

CPU 0 cumulative IPC: 0.593702 instructions: 1500000002 cycles: 2526521538
cpu0_DTLB TOTAL     ACCESS:  312630934  HIT:  311854295  MISS:     776639
cpu0_DTLB LOAD      ACCESS:  289733408  HIT:  288956769  MISS:     776639
cpu0_DTLB RFO       ACCESS:   22897526  HIT:   22897526  MISS:          0
cpu0_DTLB PREFETCH  ACCESS:          0  HIT:          0  MISS:          0
cpu0_DTLB WRITEBACK ACCESS:          0  HIT:          0  MISS:          0
cpu0_DTLB TRANSLATION ACCESS:          0  HIT:          0  MISS:          0
cpu0_DTLB PREFETCH  REQUESTED:          0  ISSUED:          0  USEFUL:          0  USELESS:          0
cpu0_DTLB AVERAGE MISS LATENCY: 9.95179 cycles
cpu0_ITLB TOTAL     ACCESS:  197656487  HIT:  197656487  MISS:          0
cpu0_ITLB LOAD      ACCESS:  197656487  HIT:  197656487  MISS:          0
cpu0_ITLB RFO       ACCESS:          0  HIT:          0  MISS:          0
cpu0_ITLB PREFETCH  ACCESS:          0  HIT:          0  MISS:          0
cpu0_ITLB WRITEBACK ACCESS:          0  HIT:          0  MISS:          0
cpu0_ITLB TRANSLATION ACCESS:          0  HIT:          0  MISS:          0
cpu0_ITLB PREFETCH  REQUESTED:          0  ISSUED:          0  USEFUL:          0  USELESS:          0
cpu0_ITLB AVERAGE MISS LATENCY: -nan cycles
cpu0_L1I TOTAL     ACCESS:          2  HIT:          2  MISS:          0
cpu0_L1I LOAD      ACCESS:          2  HIT:          2  MISS:          0
cpu0_L1I RFO       ACCESS:          0  HIT:          0  MISS:          0
cpu0_L1I PREFETCH  ACCESS:          0  HIT:          0  MISS:          0
cpu0_L1I WRITEBACK ACCESS:          0  HIT:          0  MISS:          0
cpu0_L1I TRANSLATION ACCESS:          0  HIT:          0  MISS:          0
cpu0_L1I PREFETCH  REQUESTED:          0  ISSUED:          0  USEFUL:          0  USELESS:          0
cpu0_L1I AVERAGE MISS LATENCY: -nan cycles
cpu0_STLB TOTAL     ACCESS:     776639  HIT:     773481  MISS:       3158
cpu0_STLB LOAD      ACCESS:     776639  HIT:     773481  MISS:       3158
cpu0_STLB RFO       ACCESS:          0  HIT:          0  MISS:          0
cpu0_STLB PREFETCH  ACCESS:          0  HIT:          0  MISS:          0
cpu0_STLB WRITEBACK ACCESS:          0  HIT:          0  MISS:          0
cpu0_STLB TRANSLATION ACCESS:          0  HIT:          0  MISS:          0
cpu0_STLB PREFETCH  REQUESTED:          0  ISSUED:          0  USEFUL:          0  USELESS:          0
cpu0_STLB AVERAGE MISS LATENCY: 234.066 cycles
cpu0_L1D TOTAL     ACCESS:  262423348  HIT:  221800786  MISS:   40622562
cpu0_L1D LOAD      ACCESS:  231884187  HIT:  191263986  MISS:   40620201
cpu0_L1D RFO       ACCESS:   30536104  HIT:   30536104  MISS:          0
cpu0_L1D PREFETCH  ACCESS:          0  HIT:          0  MISS:          0
cpu0_L1D WRITEBACK ACCESS:          0  HIT:          0  MISS:          0
cpu0_L1D TRANSLATION ACCESS:       3057  HIT:        696  MISS:       2361
cpu0_L1D PREFETCH  REQUESTED:          0  ISSUED:          0  USEFUL:          0  USELESS:          0
cpu0_L1D AVERAGE MISS LATENCY: 42.9442 cycles
cpu0_L2C TOTAL     ACCESS:   40624737  HIT:    1501686  MISS:   39123051
cpu0_L2C LOAD      ACCESS:   40620201  HIT:    1499511  MISS:   39120690
cpu0_L2C RFO       ACCESS:          0  HIT:          0  MISS:          0
cpu0_L2C PREFETCH  ACCESS:          0  HIT:          0  MISS:          0
cpu0_L2C WRITEBACK ACCESS:       2175  HIT:       2175  MISS:          0
cpu0_L2C TRANSLATION ACCESS:       2361  HIT:          0  MISS:       2361
cpu0_L2C PREFETCH  REQUESTED:          0  ISSUED:          0  USEFUL:          0  USELESS:          0
cpu0_L2C AVERAGE MISS LATENCY: 33.0242 cycles
LLC TOTAL     ACCESS:   39124826  HIT:   33646172  MISS:    5478654
LLC LOAD      ACCESS:   39120690  HIT:   33642088  MISS:    5478602
LLC RFO       ACCESS:          0  HIT:          0  MISS:          0
LLC PREFETCH  ACCESS:          0  HIT:          0  MISS:          0
LLC WRITEBACK ACCESS:       1775  HIT:       1775  MISS:          0
LLC TRANSLATION ACCESS:       2361  HIT:       2309  MISS:         52
LLC PREFETCH  REQUESTED:          0  ISSUED:          0  USEFUL:          0  USELESS:          0
LLC AVERAGE MISS LATENCY: 85.865 cycles
~~~~~~~~~~Reuse Distance Profiler output~~~~~~~~~~
0	62424416	52701584
1	23404016	22919904
2	17955216	17460288
3	27731040	27619968
4	13652992	7597488
5	9574720	6722032
6	3912368	3789712
7	7405424	7362144
8	622112	498544
9	3799216	2004896
10	7015936	361824
11	7271408	1392144
12	4681248	2333216
13	3156272	2032048
14	1810144	1236800
15	635488	216144
16	343632	43520
17	334560	58528
18	119328	40704
19	71072	53168
20	83344	81936
21	733968	731952
22	2575168	2573632
23	4083632	4081312
24	4043040	4040240
25	3716096	3714000
26	2710672	2708464
27	1034752	1034496
28	996816	996656
29	1621792	1621744
30	1749232	1749216
31	4555792	4555792
32	12829840	12829840
33	19376912	19376912
34	16201472	16201472
35	8064112	8064112
36	3965216	3965216
37	2041328	2041328
38	1459440	1459440
39	1825440	1825440
40	2146032	2146032
41	2888288	2888288
42	2594208	2594208
43	3622720	3622720
44	3033712	3033712
45	1283888	1283888
46	509536	509536
47	178448	178448
48	71152	71152
49	18960	18960
50	14368	14368
51	10112	10112
52	3616	3616
53	2080	2080
54	1184	1184
55	608	608
56	256	256
57	320	320
58	128	128
59	240	240
60	176	176
61	96	96
62	32	32
63	16	16
64	240	240
66	1040	1040
68	800	800
70	256	256
72	64	64
74	48	48
76	96	96
78	432	432
80	944	944
82	576	576
84	672	672
86	432	432
88	272	272
90	112	112
92	64	64
94	80	80
96	16	16
98	0	0
100	0	0
102	0	0
104	0	0
106	0	0
108	0	0
110	0	0
112	0	0
114	0	0
116	0	0
118	0	0
120	0	0
122	0	0
124	0	0
126	0	0
128	0	0
132	0	0
136	0	0
140	0	0
144	0	0
148	0	0
152	0	0
156	0	0
160	0	0
164	0	0
168	0	0
172	144	144
176	480	480
180	192	192
184	640	640
188	528	528
192	352	352
196	464	464
200	384	384
204	688	688
208	848	848
212	32	32
216	320	320
220	160	160
224	0	0
228	80	80
232	0	0
236	0	0
240	64	64
244	64	64
248	96	96
252	128	128
256	176	176
264	32	32
272	16	16
280	16	16
288	0	0
296	0	0
304	0	0
312	0	0
320	0	0
328	0	0
336	16	16
344	32	32
352	32	32
360	64	64
368	64	64
376	48	48
384	80	80
392	48	48
400	0	0
408	0	0
416	0	0
424	0	0
432	0	0
440	0	0
448	0	0
456	144	144
464	112	112
472	592	592
480	144	144
488	1024	1024
496	96	96
504	304	304
512	80	80
528	32	32
544	160	160
560	272	272
576	128	128
592	0	0
608	0	0
624	64	64
640	0	0
656	288	288
672	688	688
688	624	624
704	1280	1280
720	896	896
736	384	384
752	64	64
768	96	96
784	304	304
800	480	480
816	544	544
832	144	144
848	32	32
864	0	0
880	32	32
896	112	112
912	208	208
928	112	112
944	112	112
960	80	80
976	160	160
992	128	128
1008	96	96
1024	128	128
1056	64	64
1088	48	48
1120	144	144
1152	112	112
1184	64	64
1216	176	176
1248	176	176
1280	32	32
1312	32	32
1344	256	256
1376	128	128
1408	48	48
1440	128	128
1472	80	80
1504	128	128
1536	352	352
1568	112	112
1600	224	224
1632	208	208
1664	160	160
1696	176	176
1728	16	16
1760	64	64
1792	176	176
1824	0	0
1856	176	176
1888	144	144
1920	0	0
1952	192	192
1984	144	144
2016	48	48
2048	416	416
2112	784	784
2176	32	32
2240	144	144
2304	128	128
2368	16	16
2432	160	160
2496	512	512
2560	0	0
2624	0	0
2688	48	48
2752	640	640
2816	1104	1104
2880	352	352
2944	1200	1200
3008	816	816
3072	240	240
3136	448	448
3200	480	480
3264	576	576
3328	928	928
3392	592	592
3456	384	384
3520	944	944
3584	1248	1248
3648	800	800
3712	624	624
3776	784	784
3840	480	480
3904	368	368
3968	48	48
4032	176	176
4096	1664	1664
4224	2768	2768
4352	1344	1344
4480	592	592
4608	832	832
4736	1680	1680
4864	1152	1152
4992	848	848
5120	1408	1408
5248	688	688
5376	2224	2224
5504	2048	2048
5632	2352	2352
5760	272	272
5888	976	976
6016	496	496
6144	1344	1344
6272	2016	2016
6400	1584	1584
6528	560	560
6656	1584	1584
6784	1072	1072
6912	432	432
7040	944	944
7168	1728	1728
7296	1456	1456
7424	2624	2624
7552	3040	3040
7680	4864	4864
7808	4320	4320
7936	1856	1856
8064	1728	1728
8192	8272	8272
8448	2416	2416
8704	4096	4096
8960	3040	3040
9216	4560	4560
9472	5632	5632
9728	5264	5264
9984	3536	3536
10240	5088	5088
10496	2816	2816
10752	2288	2288
11008	2912	2912
11264	6912	6912
11520	3904	3904
11776	2880	2880
12032	2944	2944
12288	5360	5360
12544	4400	4400
12800	7088	7088
13056	6608	6608
13312	2192	2192
13568	1744	1744
13824	4464	4464
14080	7424	7424
14336	13056	13056
14592	5808	5808
14848	4800	4800
15104	8464	8464
15360	5488	5488
15616	7920	7920
15872	11520	11520
16128	7584	7584
16384	9696	9696
16896	12592	12592
17408	19280	19280
17920	18240	18240
18432	16320	16320
18944	21152	21152
19456	26928	26928
19968	23584	23584
20480	15696	15696
20992	13744	13744
21504	25840	25840
22016	6464	6464
22528	12096	12096
23040	17344	17344
23552	38640	38640
24064	17648	17648
24576	40368	40368
25088	33408	33408
25600	28928	28928
26112	26880	26880
26624	28128	28128
27136	22416	22416
27648	39776	39776
28160	32192	32192
28672	20800	20800
29184	45504	45504
29696	18000	18000
30208	19024	19024
30720	54032	54032
31232	32176	32176
31744	51936	51936
32256	17984	17984
32768	63648	63648
33792	72128	72128
34816	78480	78480
35840	78608	78608
36864	57744	57744
37888	74976	74976
38912	54992	54992
39936	53696	53696
40960	70064	70064
41984	88272	88272
43008	71936	71936
44032	143792	143792
45056	207456	207456
46080	184560	184560
47104	240384	240384
48128	209552	209552
49152	212112	212112
50176	234000	234000
51200	170144	170144
52224	175440	175440
53248	115936	115936
54272	92224	92224
55296	154704	154704
56320	120128	120128
57344	123904	123904
58368	105760	105760
59392	87024	87024
60416	159888	159888
61440	217632	217632
62464	152896	152896
63488	153072	153072
64512	115792	115792
65536	243456	243456
67584	514752	514752
69632	442336	442336
71680	297008	297008
73728	335312	335312
75776	365648	365648
77824	338448	338448
79872	296880	296880
81920	349632	349632
83968	402288	402288
86016	430224	430224
88064	351792	351792
90112	365424	365424
92160	502512	502512
94208	510256	510256
96256	519712	519712
98304	389600	389600
100352	590688	590688
102400	606576	606576
104448	626880	626880
106496	453072	453072
108544	417344	417344
110592	486720	486720
112640	504496	504496
114688	486928	486928
116736	518688	518688
118784	494928	494928
120832	619600	619600
122880	504288	504288
124928	436032	436032
126976	553472	553472
129024	692896	692896
131072	1209168	1209168
135168	1592000	1592000
139264	1552336	1552336
143360	1282272	1282272
147456	1415040	1415040
151552	1439792	1439792
155648	1297152	1297152
159744	1587328	1587328
163840	1787360	1787360
167936	1479312	1479312
172032	1784320	1784320
176128	1709392	1709392
180224	1637536	1637536
184320	1451952	1451952
188416	1576000	1576000
192512	1222864	1222864
196608	533648	533648
200704	228128	228128
204800	62288	62288
208896	81680	81680
212992	40736	40736
217088	28048	28048
221184	21728	21728
225280	57824	57824
229376	42688	42688
233472	29280	29280
237568	91872	91872
241664	106720	106720
245760	40704	40704
249856	45440	45440
253952	13536	13536
258048	93744	93744
262144	132048	132048
270336	172448	172448
278528	23968	23968
286720	127296	127296
294912	158880	158880
303104	206736	206736
311296	196848	196848
319488	268016	268016
327680	268480	268480
335872	138192	138192
344064	131472	131472
352256	116384	116384
360448	127056	127056
368640	123424	123424
376832	120448	120448
385024	161952	161952
393216	210656	210656
401408	184368	184368
409600	53680	53680
417792	49792	49792
425984	73264	73264
434176	82160	82160
442368	155632	155632
450560	264304	264304
458752	342560	342560
466944	266960	266960
475136	311616	311616
483328	133856	133856
491520	148512	148512
499712	193056	193056
507904	82400	82400
516096	208736	208736
524288	474080	474080
540672	315760	315760
557056	257632	257632
573440	13408	13408
589824	12928	12928
606208	171456	171456
622592	33968	33968
638976	53808	53808
655360	63008	63008
671744	79664	79664
688128	33488	33488
704512	70368	70368
720896	45808	45808
737280	146288	146288
753664	32064	32064
770048	50176	50176
786432	21600	21600
802816	68608	68608
819200	26816	26816
835584	23552	23552
851968	18832	18832
868352	28176	28176
884736	11408	11408
901120	31424	31424
917504	44720	44720
933888	19168	19168
950272	54816	54816
966656	3104	3104
983040	16416	16416
999424	14480	14480
1015808	4368	4368
1032192	3088	3088
1048576	27488	27488
1081344	94448	94448
1114112	0	0
1146880	31856	31856
1179648	45936	45936
1212416	35184	35184
1245184	35872	35872
1277952	240	240
1310720	11712	11712
1343488	25088	25088
1376256	4576	4576
1409024	44448	44448
1441792	42064	42064
1474560	20560	20560
1507328	1328	1328
1540096	0	0
1572864	0	0
1605632	0	0
1638400	0	0
1671168	0	0
1703936	18000	18000
1736704	8512	8512
1769472	13600	13600
1802240	18416	18416
1835008	16736	16736
1867776	15248	15248
1900544	10448	10448
1933312	3456	3456
1966080	10208	10208
1998848	0	0
2031616	9792	9792
2064384	0	0
2097152	0	0
2162688	23408	23408
2228224	4896	4896
2293760	11408	11408
2359296	20976	20976
2424832	10320	10320
2490368	2656	2656
2555904	672	672
2621440	15392	15392
2686976	0	0
2752512	0	0
2818048	0	0
2883584	0	0
2949120	496	496
3014656	7312	7312
3080192	480	480
3145728	0	0
3211264	3648	3648
3276800	11856	11856
3342336	6336	6336
3407872	576	576
3473408	5232	5232
3538944	0	0
3604480	0	0
3670016	0	0
3735552	9808	9808
3801088	0	0
3866624	0	0
3932160	0	0
3997696	0	0
4063232	8224	8224
4128768	7424	7424
4194304	20688	20688
4325376	0	0
4456448	6672	6672
4587520	2832	2832
4718592	8368	8368
4849664	0	0
4980736	0	0
5111808	0	0
5242880	9424	9424
5373952	0	0
5505024	0	0
5636096	0	0
5767168	2832	2832
5898240	0	0
6029312	0	0
6160384	0	0
6291456	0	0
6422528	0	0
6553600	0	0
6684672	4176	4176
6815744	0	0
6946816	0	0
7077888	2656	2656
7208960	0	0
7340032	0	0
7471104	0	0
7602176	0	0
7733248	0	0
7864320	0	0
7995392	0	0
8126464	0	0
8257536	1056	1056
8388608	1696	1696
8650752	0	0
8912896	0	0
9175040	2864	2864
9437184	192	192
9699328	0	0
9961472	0	0
10223616	0	0
10485760	432	432
10747904	0	0
11010048	1104	1104
11272192	0	0
11534336	4368	4368
11796480	0	0
12058624	1376	1376
12320768	3904	3904
12582912	3584	3584
12845056	0	0
13107200	0	0
13369344	0	0
13631488	0	0
13893632	0	0
14155776	0	0
14417920	1840	1840
14680064	0	0
14942208	0	0
15204352	0	0
15466496	0	0
15728640	0	0
15990784	0	0
16252928	0	0
16515072	0	0
16777216	0	0
17301504	816	816
17825792	0	0
18350080	0	0
18874368	0	0
19398656	0	0
19922944	0	0
20447232	2400	2400
20971520	0	0
21495808	0	0
22020096	0	0
22544384	0	0
23068672	0	0
23592960	0	0
24117248	656	656
24641536	0	0
25165824	272	272
25690112	0	0
26214400	0	0
26738688	0	0
27262976	0	0
27787264	0	0
28311552	0	0
28835840	0	0
29360128	0	0
29884416	0	0
30408704	0	0
30932992	0	0
31457280	0	0
31981568	0	0
32505856	0	0
33030144	0	0
33554432	0	0
34603008	0	0
35651584	0	0
36700160	0	0
37748736	0	0
38797312	0	0
39845888	0	0
40894464	0	0
41943040	96	96
42991616	0	0
44040192	0	0
45088768	0	0
46137344	0	0
47185920	0	0
48234496	0	0
49283072	0	0
50331648	0	0
51380224	0	0
52428800	0	0
53477376	0	0
54525952	0	0
55574528	0	0
56623104	0	0
57671680	0	0
58720256	0	0
59768832	0	0
60817408	0	0
61865984	0	0
62914560	0	0
63963136	0	0
65011712	0	0
66060288	0	0
67108864	0	0
69206016	0	0
71303168	0	0
73400320	0	0
75497472	0	0
77594624	0	0
79691776	0	0
81788928	0	0
83886080	0	0
85983232	0	0
88080384	0	0
90177536	0	0
92274688	0	0
94371840	0	0
96468992	0	0
98566144	0	0
100663296	0	0
102760448	0	0
104857600	0	0
106954752	0	0
109051904	0	0
111149056	0	0
113246208	0	0
115343360	0	0
117440512	0	0
119537664	0	0
121634816	0	0
123731968	0	0
125829120	0	0
127926272	0	0
130023424	0	0
132120576	0	0
134217728	0	0
138412032	0	0
142606336	0	0
146800640	0	0
150994944	0	0
155189248	0	0
159383552	0	0
163577856	0	0
167772160	0	0
171966464	0	0
176160768	0	0
180355072	0	0
184549376	0	0
188743680	0	0
192937984	0	0
197132288	0	0
201326592	0	0
205520896	0	0
209715200	0	0
213909504	0	0
218103808	0	0
222298112	0	0
226492416	0	0
230686720	0	0
234881024	0	0
239075328	0	0
243269632	0	0
247463936	0	0
251658240	0	0
255852544	0	0
260046848	0	0
264241152	0	0
268435456	0	0
276824064	0	0
285212672	0	0
293601280	0	0
301989888	0	0
310378496	0	0
318767104	0	0
327155712	0	0
335544320	0	0
343932928	0	0
352321536	0	0
360710144	0	0
369098752	0	0
377487360	0	0
385875968	0	0
394264576	0	0
402653184	0	0
411041792	0	0
419430400	0	0
427819008	0	0
436207616	0	0
444596224	0	0
452984832	0	0
461373440	0	0
469762048	0	0
478150656	0	0
486539264	0	0
494927872	0	0
503316480	0	0
511705088	0	0
520093696	0	0
528482304	0	0
536870912	0	0
553648128	0	0
570425344	0	0
587202560	0	0
603979776	0	0
620756992	0	0
637534208	0	0
654311424	0	0
671088640	0	0
687865856	0	0
704643072	0	0
721420288	0	0
738197504	0	0
754974720	0	0
771751936	0	0
788529152	0	0
805306368	0	0
822083584	0	0
838860800	0	0
855638016	0	0
872415232	0	0
889192448	0	0
905969664	0	0
922746880	0	0
939524096	0	0
956301312	0	0
973078528	0	0
989855744	0	0
1006632960	0	0
1023410176	0	0
1040187392	0	0
1056964608	0	0
1073741824	0	0
1107296256	0	0
1140850688	0	0
1174405120	0	0
1207959552	0	0
1241513984	0	0
1275068416	0	0
1308622848	0	0
1342177280	0	0
1375731712	0	0
1409286144	0	0
1442840576	0	0
1476395008	0	0
1509949440	0	0
1543503872	0	0
1577058304	0	0
1610612736	0	0
1644167168	0	0
1677721600	0	0
1711276032	0	0
1744830464	0	0
1778384896	0	0
1811939328	0	0
1845493760	0	0
1879048192	0	0
1912602624	0	0
1946157056	0	0
1979711488	0	0
2013265920	0	0
2046820352	0	0
2080374784	0	0
2113929216	0	0
2147483648	0	0
2214592512	0	0
2281701376	0	0
2348810240	0	0
2415919104	0	0
2483027968	0	0
2550136832	0	0
2617245696	0	0
2684354560	0	0
2751463424	0	0
2818572288	0	0
2885681152	0	0
2952790016	0	0
3019898880	0	0
3087007744	0	0
3154116608	0	0
3221225472	0	0
3288334336	0	0
3355443200	0	0
3422552064	0	0
3489660928	0	0
3556769792	0	0
3623878656	0	0
3690987520	0	0
3758096384	0	0
3825205248	0	0
3892314112	0	0
3959422976	0	0
4026531840	0	0
4093640704	0	0
4160749568	0	0
4227858432	0	0
~~~~~~~~~~Reuse Distance Profiler output end~~~~~~~~~~

DRAM Statistics
 CHANNEL 0
 RQ ROW_BUFFER_HIT:    4331636  ROW_BUFFER_MISS:    1147018
 DBUS AVG_CONGESTED_CYCLE:    3.92865
 WQ ROW_BUFFER_HIT:          1  ROW_BUFFER_MISS:          0  FULL:          0


CPU 0 Branch Prediction Accuracy: 88.9036% MPKI: 30.518 Average ROB Occupancy at Mispredict: 15.8311
Branch type MPKI
BRANCH_DIRECT_JUMP: 0
BRANCH_INDIRECT: 0
BRANCH_CONDITIONAL: 30.518
BRANCH_DIRECT_CALL: 0
BRANCH_INDIRECT_CALL: 0
BRANCH_RETURN: 0

