
*** ChampSim Multicore Out-of-Order Simulator ***

Warmup Instructions: 500000000
Simulation Instructions: 1500000000
Number of CPUs: 1
Off-chip DRAM Size: 4 GiB Channels: 1 Width: 64-bit Data Rate: 3200 MT/s

VirtualMemory physical capacity: 8588881920 num_ppages: 2096895
VirtualMemory page size: 4096 log2_page_size: 12

CPU 0 runs traces/625.x264_s-20B.champsimtrace.xz
CPU 0 Bimodal branch predictor
Basic BTB sets: 1024 ways: 8 indirect buffer size: 4096 RAS size: 64
Initializing LRU.
Initializing LRU.
Initializing LRU.
Initializing LRU.
Initializing rdLRU.
Initializing LRU.
Initializing LRU.
Heartbeat CPU 0 instructions: 10000002 cycles: 2712356 heartbeat IPC: 3.68683 cumulative IPC: 3.68683 (Simulation time: 0 hr 0 min 46 sec) 
Heartbeat CPU 0 instructions: 20000001 cycles: 5269404 heartbeat IPC: 3.91076 cumulative IPC: 3.7955 (Simulation time: 0 hr 1 min 32 sec) 
Heartbeat CPU 0 instructions: 30000000 cycles: 7827355 heartbeat IPC: 3.90938 cumulative IPC: 3.83271 (Simulation time: 0 hr 2 min 22 sec) 
Heartbeat CPU 0 instructions: 40000002 cycles: 10386625 heartbeat IPC: 3.90737 cumulative IPC: 3.85111 (Simulation time: 0 hr 3 min 10 sec) 
Heartbeat CPU 0 instructions: 50000004 cycles: 12944172 heartbeat IPC: 3.91 cumulative IPC: 3.86274 (Simulation time: 0 hr 3 min 45 sec) 
Heartbeat CPU 0 instructions: 60000003 cycles: 15502308 heartbeat IPC: 3.9091 cumulative IPC: 3.87039 (Simulation time: 0 hr 4 min 18 sec) 
Heartbeat CPU 0 instructions: 70000001 cycles: 18061429 heartbeat IPC: 3.90759 cumulative IPC: 3.87566 (Simulation time: 0 hr 5 min 14 sec) 
Heartbeat CPU 0 instructions: 80000001 cycles: 20620757 heartbeat IPC: 3.90728 cumulative IPC: 3.87959 (Simulation time: 0 hr 6 min 9 sec) 
Heartbeat CPU 0 instructions: 90000002 cycles: 23351698 heartbeat IPC: 3.66174 cumulative IPC: 3.85411 (Simulation time: 0 hr 7 min 7 sec) 
Heartbeat CPU 0 instructions: 100000003 cycles: 26635721 heartbeat IPC: 3.04505 cumulative IPC: 3.75436 (Simulation time: 0 hr 8 min 23 sec) 
Heartbeat CPU 0 instructions: 110000002 cycles: 29343002 heartbeat IPC: 3.69374 cumulative IPC: 3.74876 (Simulation time: 0 hr 9 min 19 sec) 
Heartbeat CPU 0 instructions: 120000002 cycles: 31843002 heartbeat IPC: 4 cumulative IPC: 3.76849 (Simulation time: 0 hr 10 min 1 sec) 
Heartbeat CPU 0 instructions: 130000002 cycles: 34343002 heartbeat IPC: 4 cumulative IPC: 3.78534 (Simulation time: 0 hr 10 min 48 sec) 
Heartbeat CPU 0 instructions: 140000002 cycles: 36843002 heartbeat IPC: 4 cumulative IPC: 3.79991 (Simulation time: 0 hr 11 min 43 sec) 
Heartbeat CPU 0 instructions: 150000002 cycles: 39343002 heartbeat IPC: 4 cumulative IPC: 3.81262 (Simulation time: 0 hr 12 min 37 sec) 
Heartbeat CPU 0 instructions: 160000002 cycles: 41843002 heartbeat IPC: 4 cumulative IPC: 3.82382 (Simulation time: 0 hr 13 min 20 sec) 
Heartbeat CPU 0 instructions: 170000002 cycles: 44343002 heartbeat IPC: 4 cumulative IPC: 3.83375 (Simulation time: 0 hr 14 min 15 sec) 
Heartbeat CPU 0 instructions: 180000002 cycles: 46843002 heartbeat IPC: 4 cumulative IPC: 3.84262 (Simulation time: 0 hr 15 min 2 sec) 
Heartbeat CPU 0 instructions: 190000002 cycles: 49343002 heartbeat IPC: 4 cumulative IPC: 3.8506 (Simulation time: 0 hr 15 min 37 sec) 
Heartbeat CPU 0 instructions: 200000002 cycles: 51843002 heartbeat IPC: 4 cumulative IPC: 3.8578 (Simulation time: 0 hr 16 min 14 sec) 
Heartbeat CPU 0 instructions: 210000002 cycles: 54343002 heartbeat IPC: 4 cumulative IPC: 3.86434 (Simulation time: 0 hr 17 min 8 sec) 
Heartbeat CPU 0 instructions: 220000002 cycles: 56843002 heartbeat IPC: 4 cumulative IPC: 3.87031 (Simulation time: 0 hr 18 min 4 sec) 
Heartbeat CPU 0 instructions: 230000002 cycles: 59343002 heartbeat IPC: 4 cumulative IPC: 3.87577 (Simulation time: 0 hr 18 min 59 sec) 
Heartbeat CPU 0 instructions: 240000002 cycles: 61843002 heartbeat IPC: 4 cumulative IPC: 3.88079 (Simulation time: 0 hr 19 min 54 sec) 
Heartbeat CPU 0 instructions: 250000002 cycles: 64343002 heartbeat IPC: 4 cumulative IPC: 3.88543 (Simulation time: 0 hr 20 min 39 sec) 
Heartbeat CPU 0 instructions: 260000002 cycles: 66843002 heartbeat IPC: 4 cumulative IPC: 3.88971 (Simulation time: 0 hr 21 min 31 sec) 
Heartbeat CPU 0 instructions: 270000002 cycles: 69343002 heartbeat IPC: 4 cumulative IPC: 3.89369 (Simulation time: 0 hr 22 min 15 sec) 
Heartbeat CPU 0 instructions: 280000002 cycles: 71843002 heartbeat IPC: 4 cumulative IPC: 3.89739 (Simulation time: 0 hr 22 min 46 sec) 
Heartbeat CPU 0 instructions: 290000002 cycles: 74343002 heartbeat IPC: 4 cumulative IPC: 3.90084 (Simulation time: 0 hr 23 min 33 sec) 
Heartbeat CPU 0 instructions: 300000002 cycles: 76843002 heartbeat IPC: 4 cumulative IPC: 3.90406 (Simulation time: 0 hr 24 min 15 sec) 
Heartbeat CPU 0 instructions: 310000002 cycles: 79343002 heartbeat IPC: 4 cumulative IPC: 3.90709 (Simulation time: 0 hr 24 min 47 sec) 
Heartbeat CPU 0 instructions: 320000002 cycles: 81843002 heartbeat IPC: 4 cumulative IPC: 3.90992 (Simulation time: 0 hr 25 min 21 sec) 
Heartbeat CPU 0 instructions: 330000002 cycles: 84343002 heartbeat IPC: 4 cumulative IPC: 3.9126 (Simulation time: 0 hr 26 min 2 sec) 
Heartbeat CPU 0 instructions: 340000002 cycles: 86843002 heartbeat IPC: 4 cumulative IPC: 3.91511 (Simulation time: 0 hr 26 min 57 sec) 
Heartbeat CPU 0 instructions: 350000002 cycles: 89343002 heartbeat IPC: 4 cumulative IPC: 3.91749 (Simulation time: 0 hr 27 min 38 sec) 
Heartbeat CPU 0 instructions: 360000002 cycles: 91843002 heartbeat IPC: 4 cumulative IPC: 3.91973 (Simulation time: 0 hr 28 min 29 sec) 
Heartbeat CPU 0 instructions: 370000002 cycles: 94343002 heartbeat IPC: 4 cumulative IPC: 3.92186 (Simulation time: 0 hr 29 min 23 sec) 
Heartbeat CPU 0 instructions: 380000002 cycles: 96843002 heartbeat IPC: 4 cumulative IPC: 3.92388 (Simulation time: 0 hr 30 min 17 sec) 
Heartbeat CPU 0 instructions: 390000002 cycles: 99343002 heartbeat IPC: 4 cumulative IPC: 3.92579 (Simulation time: 0 hr 31 min 1 sec) 
Heartbeat CPU 0 instructions: 400000002 cycles: 101843002 heartbeat IPC: 4 cumulative IPC: 3.92761 (Simulation time: 0 hr 31 min 44 sec) 
Heartbeat CPU 0 instructions: 410000002 cycles: 104343002 heartbeat IPC: 4 cumulative IPC: 3.92935 (Simulation time: 0 hr 32 min 37 sec) 
Heartbeat CPU 0 instructions: 420000002 cycles: 106843002 heartbeat IPC: 4 cumulative IPC: 3.931 (Simulation time: 0 hr 33 min 31 sec) 
Heartbeat CPU 0 instructions: 430000002 cycles: 109343002 heartbeat IPC: 4 cumulative IPC: 3.93258 (Simulation time: 0 hr 34 min 14 sec) 
Heartbeat CPU 0 instructions: 440000002 cycles: 111843002 heartbeat IPC: 4 cumulative IPC: 3.93409 (Simulation time: 0 hr 34 min 49 sec) 
Heartbeat CPU 0 instructions: 450000002 cycles: 114343002 heartbeat IPC: 4 cumulative IPC: 3.93553 (Simulation time: 0 hr 35 min 22 sec) 
Heartbeat CPU 0 instructions: 460000002 cycles: 116843002 heartbeat IPC: 4 cumulative IPC: 3.93691 (Simulation time: 0 hr 35 min 54 sec) 
Heartbeat CPU 0 instructions: 470000002 cycles: 119343002 heartbeat IPC: 4 cumulative IPC: 3.93823 (Simulation time: 0 hr 36 min 39 sec) 
Heartbeat CPU 0 instructions: 480000002 cycles: 121843002 heartbeat IPC: 4 cumulative IPC: 3.9395 (Simulation time: 0 hr 37 min 32 sec) 
Heartbeat CPU 0 instructions: 490000002 cycles: 124343002 heartbeat IPC: 4 cumulative IPC: 3.94071 (Simulation time: 0 hr 38 min 21 sec) 
Heartbeat CPU 0 instructions: 500000002 cycles: 126843002 heartbeat IPC: 4 cumulative IPC: 3.94188 (Simulation time: 0 hr 39 min 15 sec) 

Warmup complete CPU 0 instructions: 500000002 cycles: 126843002 (Simulation time: 0 hr 39 min 15 sec) 

Heartbeat CPU 0 instructions: 510000003 cycles: 130704910 heartbeat IPC: 2.58939 cumulative IPC: 2.58939 (Simulation time: 0 hr 40 min 4 sec) 
Heartbeat CPU 0 instructions: 520000002 cycles: 134564759 heartbeat IPC: 2.59077 cumulative IPC: 2.59008 (Simulation time: 0 hr 40 min 48 sec) 
Heartbeat CPU 0 instructions: 530000001 cycles: 138439424 heartbeat IPC: 2.58087 cumulative IPC: 2.587 (Simulation time: 0 hr 41 min 19 sec) 
Heartbeat CPU 0 instructions: 540000000 cycles: 142339402 heartbeat IPC: 2.56412 cumulative IPC: 2.58124 (Simulation time: 0 hr 41 min 47 sec) 
Heartbeat CPU 0 instructions: 550000004 cycles: 146241866 heartbeat IPC: 2.56248 cumulative IPC: 2.57747 (Simulation time: 0 hr 42 min 21 sec) 
Heartbeat CPU 0 instructions: 560000002 cycles: 150161274 heartbeat IPC: 2.55141 cumulative IPC: 2.57309 (Simulation time: 0 hr 42 min 56 sec) 
Heartbeat CPU 0 instructions: 570000000 cycles: 154070173 heartbeat IPC: 2.55826 cumulative IPC: 2.57096 (Simulation time: 0 hr 43 min 30 sec) 
Heartbeat CPU 0 instructions: 580000002 cycles: 157995919 heartbeat IPC: 2.54729 cumulative IPC: 2.56798 (Simulation time: 0 hr 43 min 59 sec) 
Heartbeat CPU 0 instructions: 590000004 cycles: 161906598 heartbeat IPC: 2.5571 cumulative IPC: 2.56676 (Simulation time: 0 hr 44 min 27 sec) 
Heartbeat CPU 0 instructions: 600000004 cycles: 165766138 heartbeat IPC: 2.59098 cumulative IPC: 2.56917 (Simulation time: 0 hr 44 min 56 sec) 
Heartbeat CPU 0 instructions: 610000000 cycles: 169602426 heartbeat IPC: 2.60669 cumulative IPC: 2.57253 (Simulation time: 0 hr 45 min 24 sec) 
Heartbeat CPU 0 instructions: 620000001 cycles: 173736702 heartbeat IPC: 2.4188 cumulative IPC: 2.55898 (Simulation time: 0 hr 45 min 58 sec) 
Heartbeat CPU 0 instructions: 630000002 cycles: 177919531 heartbeat IPC: 2.39073 cumulative IPC: 2.5452 (Simulation time: 0 hr 46 min 28 sec) 
Heartbeat CPU 0 instructions: 640000000 cycles: 182114965 heartbeat IPC: 2.38354 cumulative IPC: 2.53293 (Simulation time: 0 hr 46 min 58 sec) 
Heartbeat CPU 0 instructions: 650000000 cycles: 186332554 heartbeat IPC: 2.37102 cumulative IPC: 2.52145 (Simulation time: 0 hr 47 min 34 sec) 
Heartbeat CPU 0 instructions: 660000002 cycles: 190548326 heartbeat IPC: 2.37205 cumulative IPC: 2.51156 (Simulation time: 0 hr 48 min 26 sec) 
Heartbeat CPU 0 instructions: 670000004 cycles: 194786460 heartbeat IPC: 2.35953 cumulative IPC: 2.50208 (Simulation time: 0 hr 49 min 18 sec) 
Heartbeat CPU 0 instructions: 680000000 cycles: 199057497 heartbeat IPC: 2.34135 cumulative IPC: 2.49257 (Simulation time: 0 hr 50 min 11 sec) 
Heartbeat CPU 0 instructions: 690000003 cycles: 203358288 heartbeat IPC: 2.32515 cumulative IPC: 2.48316 (Simulation time: 0 hr 51 min 3 sec) 
Heartbeat CPU 0 instructions: 700000000 cycles: 207646723 heartbeat IPC: 2.33185 cumulative IPC: 2.47513 (Simulation time: 0 hr 51 min 39 sec) 
Heartbeat CPU 0 instructions: 710000002 cycles: 211927243 heartbeat IPC: 2.33617 cumulative IPC: 2.46814 (Simulation time: 0 hr 52 min 16 sec) 
Heartbeat CPU 0 instructions: 720000003 cycles: 216173107 heartbeat IPC: 2.35523 cumulative IPC: 2.46278 (Simulation time: 0 hr 52 min 50 sec) 
Heartbeat CPU 0 instructions: 730000000 cycles: 220349026 heartbeat IPC: 2.39468 cumulative IPC: 2.45973 (Simulation time: 0 hr 53 min 35 sec) 
Heartbeat CPU 0 instructions: 740000003 cycles: 224487771 heartbeat IPC: 2.41619 cumulative IPC: 2.45789 (Simulation time: 0 hr 54 min 26 sec) 
Heartbeat CPU 0 instructions: 750000003 cycles: 228642626 heartbeat IPC: 2.40682 cumulative IPC: 2.4558 (Simulation time: 0 hr 55 min 16 sec) 
Heartbeat CPU 0 instructions: 760000000 cycles: 232807964 heartbeat IPC: 2.40076 cumulative IPC: 2.45364 (Simulation time: 0 hr 56 min 3 sec) 
Heartbeat CPU 0 instructions: 770000004 cycles: 236972140 heartbeat IPC: 2.40144 cumulative IPC: 2.45167 (Simulation time: 0 hr 56 min 53 sec) 
Heartbeat CPU 0 instructions: 780000003 cycles: 241130153 heartbeat IPC: 2.40499 cumulative IPC: 2.44997 (Simulation time: 0 hr 57 min 38 sec) 
Heartbeat CPU 0 instructions: 790000000 cycles: 245301753 heartbeat IPC: 2.39716 cumulative IPC: 2.44811 (Simulation time: 0 hr 58 min 18 sec) 
Heartbeat CPU 0 instructions: 800000004 cycles: 249444001 heartbeat IPC: 2.41415 cumulative IPC: 2.44696 (Simulation time: 0 hr 59 min 8 sec) 
Heartbeat CPU 0 instructions: 810000001 cycles: 253603589 heartbeat IPC: 2.40408 cumulative IPC: 2.44556 (Simulation time: 0 hr 59 min 48 sec) 
Heartbeat CPU 0 instructions: 820000001 cycles: 257745628 heartbeat IPC: 2.41427 cumulative IPC: 2.44457 (Simulation time: 1 hr 0 min 22 sec) 
Heartbeat CPU 0 instructions: 830000001 cycles: 263895630 heartbeat IPC: 1.62602 cumulative IPC: 2.40783 (Simulation time: 1 hr 0 min 59 sec) 
Heartbeat CPU 0 instructions: 840000000 cycles: 273469365 heartbeat IPC: 1.04452 cumulative IPC: 2.31882 (Simulation time: 1 hr 1 min 40 sec) 
Heartbeat CPU 0 instructions: 850000000 cycles: 277449198 heartbeat IPC: 2.51267 cumulative IPC: 2.32394 (Simulation time: 1 hr 2 min 16 sec) 
Heartbeat CPU 0 instructions: 860000001 cycles: 281207521 heartbeat IPC: 2.66076 cumulative IPC: 2.33214 (Simulation time: 1 hr 2 min 49 sec) 
Heartbeat CPU 0 instructions: 870000001 cycles: 284979543 heartbeat IPC: 2.6511 cumulative IPC: 2.33975 (Simulation time: 1 hr 3 min 23 sec) 
Heartbeat CPU 0 instructions: 880000004 cycles: 288768256 heartbeat IPC: 2.63942 cumulative IPC: 2.34676 (Simulation time: 1 hr 4 min 8 sec) 
Heartbeat CPU 0 instructions: 890000004 cycles: 292549317 heartbeat IPC: 2.64476 cumulative IPC: 2.35356 (Simulation time: 1 hr 4 min 52 sec) 
Heartbeat CPU 0 instructions: 900000000 cycles: 296343770 heartbeat IPC: 2.63542 cumulative IPC: 2.35987 (Simulation time: 1 hr 5 min 30 sec) 
Heartbeat CPU 0 instructions: 910000004 cycles: 300320605 heartbeat IPC: 2.51456 cumulative IPC: 2.36342 (Simulation time: 1 hr 6 min 2 sec) 
Heartbeat CPU 0 instructions: 920000000 cycles: 304117370 heartbeat IPC: 2.63382 cumulative IPC: 2.36921 (Simulation time: 1 hr 6 min 34 sec) 
Heartbeat CPU 0 instructions: 930000002 cycles: 307725924 heartbeat IPC: 2.77119 cumulative IPC: 2.37723 (Simulation time: 1 hr 7 min 28 sec) 
Heartbeat CPU 0 instructions: 940000003 cycles: 311373274 heartbeat IPC: 2.74172 cumulative IPC: 2.38443 (Simulation time: 1 hr 8 min 23 sec) 
Heartbeat CPU 0 instructions: 950000000 cycles: 315031837 heartbeat IPC: 2.73331 cumulative IPC: 2.39122 (Simulation time: 1 hr 9 min 10 sec) 
Heartbeat CPU 0 instructions: 960000004 cycles: 318627011 heartbeat IPC: 2.78151 cumulative IPC: 2.39853 (Simulation time: 1 hr 9 min 46 sec) 
Heartbeat CPU 0 instructions: 970000000 cycles: 322284054 heartbeat IPC: 2.73445 cumulative IPC: 2.40482 (Simulation time: 1 hr 10 min 27 sec) 
Heartbeat CPU 0 instructions: 980000000 cycles: 334503944 heartbeat IPC: 0.818338 cumulative IPC: 2.31146 (Simulation time: 1 hr 11 min 52 sec) 
Heartbeat CPU 0 instructions: 990000004 cycles: 338280723 heartbeat IPC: 2.64776 cumulative IPC: 2.31747 (Simulation time: 1 hr 13 min 13 sec) 
Heartbeat CPU 0 instructions: 1000000003 cycles: 343278227 heartbeat IPC: 2.001 cumulative IPC: 2.31016 (Simulation time: 1 hr 14 min 20 sec) 
Heartbeat CPU 0 instructions: 1010000003 cycles: 347324765 heartbeat IPC: 2.47125 cumulative IPC: 2.31312 (Simulation time: 1 hr 15 min 21 sec) 
Heartbeat CPU 0 instructions: 1020000001 cycles: 351257869 heartbeat IPC: 2.54252 cumulative IPC: 2.31714 (Simulation time: 1 hr 16 min 21 sec) 
Heartbeat CPU 0 instructions: 1030000001 cycles: 355064418 heartbeat IPC: 2.62705 cumulative IPC: 2.32231 (Simulation time: 1 hr 17 min 20 sec) 
Heartbeat CPU 0 instructions: 1040000000 cycles: 358867990 heartbeat IPC: 2.62911 cumulative IPC: 2.32734 (Simulation time: 1 hr 18 min 6 sec) 
Heartbeat CPU 0 instructions: 1050000004 cycles: 362700410 heartbeat IPC: 2.60932 cumulative IPC: 2.33192 (Simulation time: 1 hr 18 min 56 sec) 
Heartbeat CPU 0 instructions: 1060000002 cycles: 366651312 heartbeat IPC: 2.53107 cumulative IPC: 2.3352 (Simulation time: 1 hr 19 min 31 sec) 
Heartbeat CPU 0 instructions: 1070000004 cycles: 370471413 heartbeat IPC: 2.61773 cumulative IPC: 2.33963 (Simulation time: 1 hr 20 min 24 sec) 
Heartbeat CPU 0 instructions: 1080000000 cycles: 374351047 heartbeat IPC: 2.57756 cumulative IPC: 2.34336 (Simulation time: 1 hr 21 min 23 sec) 
Heartbeat CPU 0 instructions: 1090000001 cycles: 378240808 heartbeat IPC: 2.57085 cumulative IPC: 2.34688 (Simulation time: 1 hr 22 min 23 sec) 
Heartbeat CPU 0 instructions: 1100000002 cycles: 382030703 heartbeat IPC: 2.6386 cumulative IPC: 2.35121 (Simulation time: 1 hr 23 min 22 sec) 
Heartbeat CPU 0 instructions: 1110000004 cycles: 385843520 heartbeat IPC: 2.62273 cumulative IPC: 2.35521 (Simulation time: 1 hr 24 min 13 sec) 
Heartbeat CPU 0 instructions: 1120000004 cycles: 389642475 heartbeat IPC: 2.6323 cumulative IPC: 2.35921 (Simulation time: 1 hr 25 min 9 sec) 
Heartbeat CPU 0 instructions: 1130000000 cycles: 393415127 heartbeat IPC: 2.65065 cumulative IPC: 2.36334 (Simulation time: 1 hr 25 min 42 sec) 
Heartbeat CPU 0 instructions: 1140000003 cycles: 397209129 heartbeat IPC: 2.63574 cumulative IPC: 2.36716 (Simulation time: 1 hr 26 min 16 sec) 
Heartbeat CPU 0 instructions: 1150000004 cycles: 401037388 heartbeat IPC: 2.61215 cumulative IPC: 2.37058 (Simulation time: 1 hr 27 min 1 sec) 
Heartbeat CPU 0 instructions: 1160000002 cycles: 404907191 heartbeat IPC: 2.58411 cumulative IPC: 2.37355 (Simulation time: 1 hr 28 min 2 sec) 
Heartbeat CPU 0 instructions: 1170000000 cycles: 416656238 heartbeat IPC: 0.851133 cumulative IPC: 2.31183 (Simulation time: 1 hr 30 min 42 sec) 
Heartbeat CPU 0 instructions: 1180000001 cycles: 420978485 heartbeat IPC: 2.31361 cumulative IPC: 2.31186 (Simulation time: 1 hr 32 min 3 sec) 
Heartbeat CPU 0 instructions: 1190000002 cycles: 425612633 heartbeat IPC: 2.15789 cumulative IPC: 2.30947 (Simulation time: 1 hr 33 min 6 sec) 
Heartbeat CPU 0 instructions: 1200000001 cycles: 429804702 heartbeat IPC: 2.38546 cumulative IPC: 2.31052 (Simulation time: 1 hr 34 min 4 sec) 
Heartbeat CPU 0 instructions: 1210000003 cycles: 434012651 heartbeat IPC: 2.37646 cumulative IPC: 2.31143 (Simulation time: 1 hr 34 min 50 sec) 
Heartbeat CPU 0 instructions: 1220000002 cycles: 438203828 heartbeat IPC: 2.38596 cumulative IPC: 2.31243 (Simulation time: 1 hr 35 min 49 sec) 
Heartbeat CPU 0 instructions: 1230000004 cycles: 442408552 heartbeat IPC: 2.37828 cumulative IPC: 2.31331 (Simulation time: 1 hr 36 min 26 sec) 
Heartbeat CPU 0 instructions: 1240000002 cycles: 446637009 heartbeat IPC: 2.36493 cumulative IPC: 2.31399 (Simulation time: 1 hr 37 min 3 sec) 
Heartbeat CPU 0 instructions: 1250000001 cycles: 450852325 heartbeat IPC: 2.3723 cumulative IPC: 2.31475 (Simulation time: 1 hr 37 min 40 sec) 
Heartbeat CPU 0 instructions: 1260000000 cycles: 455090826 heartbeat IPC: 2.35932 cumulative IPC: 2.31532 (Simulation time: 1 hr 38 min 18 sec) 
Heartbeat CPU 0 instructions: 1270000002 cycles: 466773839 heartbeat IPC: 0.855944 cumulative IPC: 2.26517 (Simulation time: 1 hr 40 min 28 sec) 
Heartbeat CPU 0 instructions: 1280000002 cycles: 470710021 heartbeat IPC: 2.54053 cumulative IPC: 2.26832 (Simulation time: 1 hr 42 min 39 sec) 
Heartbeat CPU 0 instructions: 1290000000 cycles: 475611691 heartbeat IPC: 2.04012 cumulative IPC: 2.26511 (Simulation time: 1 hr 43 min 37 sec) 
Heartbeat CPU 0 instructions: 1300000003 cycles: 479812714 heartbeat IPC: 2.38037 cumulative IPC: 2.26648 (Simulation time: 1 hr 44 min 30 sec) 
Heartbeat CPU 0 instructions: 1310000004 cycles: 484036546 heartbeat IPC: 2.36752 cumulative IPC: 2.26768 (Simulation time: 1 hr 45 min 23 sec) 
Heartbeat CPU 0 instructions: 1320000003 cycles: 488238417 heartbeat IPC: 2.37989 cumulative IPC: 2.26898 (Simulation time: 1 hr 46 min 30 sec) 
Heartbeat CPU 0 instructions: 1330000002 cycles: 492451820 heartbeat IPC: 2.37338 cumulative IPC: 2.27019 (Simulation time: 1 hr 47 min 37 sec) 
Heartbeat CPU 0 instructions: 1340000001 cycles: 496665653 heartbeat IPC: 2.37314 cumulative IPC: 2.27136 (Simulation time: 1 hr 48 min 45 sec) 
Heartbeat CPU 0 instructions: 1350000003 cycles: 500871836 heartbeat IPC: 2.37745 cumulative IPC: 2.27255 (Simulation time: 1 hr 49 min 53 sec) 
Heartbeat CPU 0 instructions: 1360000002 cycles: 505118515 heartbeat IPC: 2.35478 cumulative IPC: 2.27348 (Simulation time: 1 hr 50 min 51 sec) 
Heartbeat CPU 0 instructions: 1370000001 cycles: 517083299 heartbeat IPC: 0.835786 cumulative IPC: 2.2294 (Simulation time: 1 hr 52 min 56 sec) 
Heartbeat CPU 0 instructions: 1380000001 cycles: 520740734 heartbeat IPC: 2.73416 cumulative IPC: 2.23408 (Simulation time: 1 hr 55 min 0 sec) 
Heartbeat CPU 0 instructions: 1390000002 cycles: 525685715 heartbeat IPC: 2.02225 cumulative IPC: 2.23146 (Simulation time: 1 hr 55 min 39 sec) 
Heartbeat CPU 0 instructions: 1400000001 cycles: 529645519 heartbeat IPC: 2.52538 cumulative IPC: 2.23435 (Simulation time: 1 hr 56 min 13 sec) 
Heartbeat CPU 0 instructions: 1410000004 cycles: 533859426 heartbeat IPC: 2.3731 cumulative IPC: 2.23578 (Simulation time: 1 hr 56 min 50 sec) 
Heartbeat CPU 0 instructions: 1420000000 cycles: 538087747 heartbeat IPC: 2.365 cumulative IPC: 2.23711 (Simulation time: 1 hr 57 min 38 sec) 
Heartbeat CPU 0 instructions: 1430000002 cycles: 542367100 heartbeat IPC: 2.3368 cumulative IPC: 2.23814 (Simulation time: 1 hr 58 min 9 sec) 
Heartbeat CPU 0 instructions: 1440000002 cycles: 546643490 heartbeat IPC: 2.33842 cumulative IPC: 2.23916 (Simulation time: 1 hr 58 min 40 sec) 
Heartbeat CPU 0 instructions: 1450000003 cycles: 550883897 heartbeat IPC: 2.35826 cumulative IPC: 2.24035 (Simulation time: 1 hr 59 min 11 sec) 
Heartbeat CPU 0 instructions: 1460000001 cycles: 555109365 heartbeat IPC: 2.3666 cumulative IPC: 2.2416 (Simulation time: 1 hr 59 min 43 sec) 
Heartbeat CPU 0 instructions: 1470000000 cycles: 559368984 heartbeat IPC: 2.34763 cumulative IPC: 2.24264 (Simulation time: 2 hr 0 min 27 sec) 
Heartbeat CPU 0 instructions: 1480000000 cycles: 563620080 heartbeat IPC: 2.35233 cumulative IPC: 2.24371 (Simulation time: 2 hr 1 min 7 sec) 
Heartbeat CPU 0 instructions: 1490000003 cycles: 567878880 heartbeat IPC: 2.34808 cumulative IPC: 2.24472 (Simulation time: 2 hr 1 min 38 sec) 
Heartbeat CPU 0 instructions: 1500000003 cycles: 572130207 heartbeat IPC: 2.35221 cumulative IPC: 2.24574 (Simulation time: 2 hr 2 min 9 sec) 
Heartbeat CPU 0 instructions: 1510000002 cycles: 576354944 heartbeat IPC: 2.36701 cumulative IPC: 2.24688 (Simulation time: 2 hr 2 min 39 sec) 
Heartbeat CPU 0 instructions: 1520000004 cycles: 580330711 heartbeat IPC: 2.51524 cumulative IPC: 2.24923 (Simulation time: 2 hr 3 min 14 sec) 
Heartbeat CPU 0 instructions: 1530000001 cycles: 583792344 heartbeat IPC: 2.88881 cumulative IPC: 2.25408 (Simulation time: 2 hr 3 min 53 sec) 
Heartbeat CPU 0 instructions: 1540000004 cycles: 587255044 heartbeat IPC: 2.88792 cumulative IPC: 2.25885 (Simulation time: 2 hr 4 min 21 sec) 
Heartbeat CPU 0 instructions: 1550000000 cycles: 590717040 heartbeat IPC: 2.88851 cumulative IPC: 2.26355 (Simulation time: 2 hr 4 min 47 sec) 
Heartbeat CPU 0 instructions: 1560000002 cycles: 594327592 heartbeat IPC: 2.76966 cumulative IPC: 2.26745 (Simulation time: 2 hr 5 min 14 sec) 
Heartbeat CPU 0 instructions: 1570000003 cycles: 597647775 heartbeat IPC: 3.01188 cumulative IPC: 2.2727 (Simulation time: 2 hr 5 min 44 sec) 
Heartbeat CPU 0 instructions: 1580000004 cycles: 601830841 heartbeat IPC: 2.39059 cumulative IPC: 2.27374 (Simulation time: 2 hr 6 min 12 sec) 
Heartbeat CPU 0 instructions: 1590000003 cycles: 606037014 heartbeat IPC: 2.37746 cumulative IPC: 2.27465 (Simulation time: 2 hr 6 min 40 sec) 
Heartbeat CPU 0 instructions: 1600000001 cycles: 610275259 heartbeat IPC: 2.35947 cumulative IPC: 2.2754 (Simulation time: 2 hr 7 min 9 sec) 
Heartbeat CPU 0 instructions: 1610000004 cycles: 614487527 heartbeat IPC: 2.37402 cumulative IPC: 2.27625 (Simulation time: 2 hr 7 min 38 sec) 
Heartbeat CPU 0 instructions: 1620000000 cycles: 618708134 heartbeat IPC: 2.36933 cumulative IPC: 2.27705 (Simulation time: 2 hr 8 min 7 sec) 
Heartbeat CPU 0 instructions: 1630000000 cycles: 622917358 heartbeat IPC: 2.37573 cumulative IPC: 2.27788 (Simulation time: 2 hr 8 min 35 sec) 
Heartbeat CPU 0 instructions: 1640000001 cycles: 626974686 heartbeat IPC: 2.46468 cumulative IPC: 2.2794 (Simulation time: 2 hr 9 min 3 sec) 
Heartbeat CPU 0 instructions: 1650000004 cycles: 631002522 heartbeat IPC: 2.48272 cumulative IPC: 2.28102 (Simulation time: 2 hr 9 min 30 sec) 
Heartbeat CPU 0 instructions: 1660000003 cycles: 635010896 heartbeat IPC: 2.49478 cumulative IPC: 2.28271 (Simulation time: 2 hr 9 min 57 sec) 
Heartbeat CPU 0 instructions: 1670000003 cycles: 639033332 heartbeat IPC: 2.48606 cumulative IPC: 2.28431 (Simulation time: 2 hr 10 min 26 sec) 
Heartbeat CPU 0 instructions: 1680000004 cycles: 643078722 heartbeat IPC: 2.47195 cumulative IPC: 2.28578 (Simulation time: 2 hr 10 min 54 sec) 
Heartbeat CPU 0 instructions: 1690000000 cycles: 647122611 heartbeat IPC: 2.47287 cumulative IPC: 2.28723 (Simulation time: 2 hr 11 min 22 sec) 
Heartbeat CPU 0 instructions: 1700000000 cycles: 651161394 heartbeat IPC: 2.47599 cumulative IPC: 2.28869 (Simulation time: 2 hr 11 min 50 sec) 
Heartbeat CPU 0 instructions: 1710000004 cycles: 655212877 heartbeat IPC: 2.46823 cumulative IPC: 2.29006 (Simulation time: 2 hr 12 min 18 sec) 
Heartbeat CPU 0 instructions: 1720000004 cycles: 659262825 heartbeat IPC: 2.46917 cumulative IPC: 2.29142 (Simulation time: 2 hr 12 min 47 sec) 
Heartbeat CPU 0 instructions: 1730000002 cycles: 663318714 heartbeat IPC: 2.46555 cumulative IPC: 2.29274 (Simulation time: 2 hr 13 min 16 sec) 
Heartbeat CPU 0 instructions: 1740000000 cycles: 667389443 heartbeat IPC: 2.45656 cumulative IPC: 2.29397 (Simulation time: 2 hr 13 min 45 sec) 
Heartbeat CPU 0 instructions: 1750000000 cycles: 671441722 heartbeat IPC: 2.46775 cumulative IPC: 2.29527 (Simulation time: 2 hr 14 min 23 sec) 
Heartbeat CPU 0 instructions: 1760000003 cycles: 675459319 heartbeat IPC: 2.48905 cumulative IPC: 2.29669 (Simulation time: 2 hr 15 min 13 sec) 
Heartbeat CPU 0 instructions: 1770000000 cycles: 679467347 heartbeat IPC: 2.49499 cumulative IPC: 2.29813 (Simulation time: 2 hr 15 min 56 sec) 
Heartbeat CPU 0 instructions: 1780000003 cycles: 683468529 heartbeat IPC: 2.49926 cumulative IPC: 2.29957 (Simulation time: 2 hr 16 min 23 sec) 
Heartbeat CPU 0 instructions: 1790000002 cycles: 687482234 heartbeat IPC: 2.49146 cumulative IPC: 2.30095 (Simulation time: 2 hr 16 min 51 sec) 
Heartbeat CPU 0 instructions: 1800000003 cycles: 690935697 heartbeat IPC: 2.89564 cumulative IPC: 2.30459 (Simulation time: 2 hr 17 min 18 sec) 
Heartbeat CPU 0 instructions: 1810000003 cycles: 694363604 heartbeat IPC: 2.91723 cumulative IPC: 2.30829 (Simulation time: 2 hr 17 min 44 sec) 
Heartbeat CPU 0 instructions: 1820000001 cycles: 697786894 heartbeat IPC: 2.92117 cumulative IPC: 2.31196 (Simulation time: 2 hr 18 min 11 sec) 
Heartbeat CPU 0 instructions: 1830000002 cycles: 701223031 heartbeat IPC: 2.91025 cumulative IPC: 2.31554 (Simulation time: 2 hr 18 min 37 sec) 
Heartbeat CPU 0 instructions: 1840000000 cycles: 704571852 heartbeat IPC: 2.98612 cumulative IPC: 2.31943 (Simulation time: 2 hr 19 min 5 sec) 
Heartbeat CPU 0 instructions: 1850000004 cycles: 708470929 heartbeat IPC: 2.56471 cumulative IPC: 2.32107 (Simulation time: 2 hr 19 min 34 sec) 
Heartbeat CPU 0 instructions: 1860000004 cycles: 712644746 heartbeat IPC: 2.39589 cumulative IPC: 2.3216 (Simulation time: 2 hr 20 min 2 sec) 
Heartbeat CPU 0 instructions: 1870000000 cycles: 716877494 heartbeat IPC: 2.36253 cumulative IPC: 2.3219 (Simulation time: 2 hr 20 min 30 sec) 
Heartbeat CPU 0 instructions: 1880000004 cycles: 721089141 heartbeat IPC: 2.37437 cumulative IPC: 2.32227 (Simulation time: 2 hr 20 min 58 sec) 
Heartbeat CPU 0 instructions: 1890000004 cycles: 725318673 heartbeat IPC: 2.36433 cumulative IPC: 2.32257 (Simulation time: 2 hr 21 min 27 sec) 
Heartbeat CPU 0 instructions: 1900000002 cycles: 729519562 heartbeat IPC: 2.38045 cumulative IPC: 2.32297 (Simulation time: 2 hr 21 min 54 sec) 
Heartbeat CPU 0 instructions: 1910000000 cycles: 733421887 heartbeat IPC: 2.56257 cumulative IPC: 2.32451 (Simulation time: 2 hr 22 min 22 sec) 
Heartbeat CPU 0 instructions: 1920000001 cycles: 736884044 heartbeat IPC: 2.88837 cumulative IPC: 2.32771 (Simulation time: 2 hr 22 min 49 sec) 
Heartbeat CPU 0 instructions: 1930000004 cycles: 740346315 heartbeat IPC: 2.88828 cumulative IPC: 2.33088 (Simulation time: 2 hr 23 min 16 sec) 
Heartbeat CPU 0 instructions: 1940000004 cycles: 743808304 heartbeat IPC: 2.88851 cumulative IPC: 2.334 (Simulation time: 2 hr 23 min 43 sec) 
Heartbeat CPU 0 instructions: 1950000002 cycles: 747266634 heartbeat IPC: 2.89157 cumulative IPC: 2.33711 (Simulation time: 2 hr 24 min 9 sec) 
Heartbeat CPU 0 instructions: 1960000001 cycles: 750647457 heartbeat IPC: 2.95786 cumulative IPC: 2.34048 (Simulation time: 2 hr 24 min 38 sec) 
Heartbeat CPU 0 instructions: 1970000004 cycles: 754779637 heartbeat IPC: 2.42003 cumulative IPC: 2.341 (Simulation time: 2 hr 25 min 6 sec) 
Heartbeat CPU 0 instructions: 1980000000 cycles: 758951482 heartbeat IPC: 2.39702 cumulative IPC: 2.34137 (Simulation time: 2 hr 25 min 45 sec) 
Heartbeat CPU 0 instructions: 1990000000 cycles: 763131160 heartbeat IPC: 2.39253 cumulative IPC: 2.34171 (Simulation time: 2 hr 26 min 26 sec) 
*** Reached end of trace: traces/625.x264_s-20B.champsimtrace.xz
Heartbeat CPU 0 instructions: 2000000001 cycles: 767283903 heartbeat IPC: 2.40805 cumulative IPC: 2.34214 (Simulation time: 2 hr 26 min 53 sec) 
Finished CPU 0 instructions: 1500000004 cycles: 640441312 cumulative IPC: 2.34213 (Simulation time: 2 hr 26 min 53 sec) 

ChampSim completed all CPUs

Region of Interest Statistics

CPU 0 cumulative IPC: 2.34213 instructions: 1500000004 cycles: 640441312
cpu0_DTLB TOTAL     ACCESS:  186128732  HIT:  184948905  MISS:    1179827
cpu0_DTLB LOAD      ACCESS:  136661293  HIT:  135881467  MISS:     779826
cpu0_DTLB RFO       ACCESS:   49467439  HIT:   49067438  MISS:     400001
cpu0_DTLB PREFETCH  ACCESS:          0  HIT:          0  MISS:          0
cpu0_DTLB WRITEBACK ACCESS:          0  HIT:          0  MISS:          0
cpu0_DTLB TRANSLATION ACCESS:          0  HIT:          0  MISS:          0
cpu0_DTLB PREFETCH  REQUESTED:          0  ISSUED:          0  USEFUL:          0  USELESS:          0
cpu0_DTLB AVERAGE MISS LATENCY: 11.3723 cycles
cpu0_ITLB TOTAL     ACCESS:   89873901  HIT:   89872382  MISS:       1519
cpu0_ITLB LOAD      ACCESS:   89873901  HIT:   89872382  MISS:       1519
cpu0_ITLB RFO       ACCESS:          0  HIT:          0  MISS:          0
cpu0_ITLB PREFETCH  ACCESS:          0  HIT:          0  MISS:          0
cpu0_ITLB WRITEBACK ACCESS:          0  HIT:          0  MISS:          0
cpu0_ITLB TRANSLATION ACCESS:          0  HIT:          0  MISS:          0
cpu0_ITLB PREFETCH  REQUESTED:          0  ISSUED:          0  USEFUL:          0  USELESS:          0
cpu0_ITLB AVERAGE MISS LATENCY: 23.9184 cycles
cpu0_L1I TOTAL     ACCESS:   58526999  HIT:   57403159  MISS:    1123840
cpu0_L1I LOAD      ACCESS:   58526999  HIT:   57403159  MISS:    1123840
cpu0_L1I RFO       ACCESS:          0  HIT:          0  MISS:          0
cpu0_L1I PREFETCH  ACCESS:          0  HIT:          0  MISS:          0
cpu0_L1I WRITEBACK ACCESS:          0  HIT:          0  MISS:          0
cpu0_L1I TRANSLATION ACCESS:          0  HIT:          0  MISS:          0
cpu0_L1I PREFETCH  REQUESTED:          0  ISSUED:          0  USEFUL:          0  USELESS:          0
cpu0_L1I AVERAGE MISS LATENCY: 13.8064 cycles
cpu0_STLB TOTAL     ACCESS:    1181346  HIT:    1161858  MISS:      19488
cpu0_STLB LOAD      ACCESS:     781345  HIT:     768450  MISS:      12895
cpu0_STLB RFO       ACCESS:     400001  HIT:     393408  MISS:       6593
cpu0_STLB PREFETCH  ACCESS:          0  HIT:          0  MISS:          0
cpu0_STLB WRITEBACK ACCESS:          0  HIT:          0  MISS:          0
cpu0_STLB TRANSLATION ACCESS:          0  HIT:          0  MISS:          0
cpu0_STLB PREFETCH  REQUESTED:          0  ISSUED:          0  USEFUL:          0  USELESS:          0
cpu0_STLB AVERAGE MISS LATENCY: 141.575 cycles
cpu0_L1D TOTAL     ACCESS:  218579595  HIT:  216393303  MISS:    2186292
cpu0_L1D LOAD      ACCESS:  113382794  HIT:  111780355  MISS:    1602439
cpu0_L1D RFO       ACCESS:  105178856  HIT:  104596950  MISS:     581906
cpu0_L1D PREFETCH  ACCESS:          0  HIT:          0  MISS:          0
cpu0_L1D WRITEBACK ACCESS:          0  HIT:          0  MISS:          0
cpu0_L1D TRANSLATION ACCESS:      17945  HIT:      15998  MISS:       1947
cpu0_L1D PREFETCH  REQUESTED:          0  ISSUED:          0  USEFUL:          0  USELESS:          0
cpu0_L1D AVERAGE MISS LATENCY: 229.874 cycles
cpu0_L2C TOTAL     ACCESS:    3990339  HIT:    2501733  MISS:    1488606
cpu0_L2C LOAD      ACCESS:    2726269  HIT:    1670676  MISS:    1055593
cpu0_L2C RFO       ACCESS:     577674  HIT:     146229  MISS:     431445
cpu0_L2C PREFETCH  ACCESS:          0  HIT:          0  MISS:          0
cpu0_L2C WRITEBACK ACCESS:     684449  HIT:     683106  MISS:       1343
cpu0_L2C TRANSLATION ACCESS:       1947  HIT:       1722  MISS:        225
cpu0_L2C PREFETCH  REQUESTED:          0  ISSUED:          0  USEFUL:          0  USELESS:          0
cpu0_L2C AVERAGE MISS LATENCY: 323.489 cycles
LLC TOTAL     ACCESS:    1994991  HIT:     759971  MISS:    1235020
LLC LOAD      ACCESS:    1055589  HIT:     251468  MISS:     804121
LLC RFO       ACCESS:     431444  HIT:       2321  MISS:     429123
LLC PREFETCH  ACCESS:          0  HIT:          0  MISS:          0
LLC WRITEBACK ACCESS:     507733  HIT:     506049  MISS:       1684
LLC TRANSLATION ACCESS:        225  HIT:        133  MISS:         92
LLC PREFETCH  REQUESTED:          0  ISSUED:          0  USEFUL:          0  USELESS:          0
LLC AVERAGE MISS LATENCY: 364.621 cycles
~~~~~~~~~~Reuse Distance Profiler output~~~~~~~~~~
0	93743344	18925232
1	46210224	31303904
2	20956064	12438656
3	18054064	12525296
4	12948976	6827168
5	8923616	6251232
6	7298592	5382464
7	7714128	4854992
8	4537120	2508560
9	3664752	1944336
10	2173696	1281280
11	1610608	847184
12	1516528	837792
13	1509808	864048
14	2533152	2019136
15	2676736	2160128
16	1437312	915568
17	1185856	682320
18	1480032	1151792
19	1094480	853776
20	1955408	1428688
21	1399344	1002832
22	814528	539792
23	1810464	1333808
24	769936	490256
25	1107920	683408
26	843200	652272
27	747088	400848
28	566032	347568
29	755904	474864
30	546384	356624
31	441824	295568
32	491024	319152
33	446096	269136
34	571888	426224
35	516640	306000
36	669168	406336
37	554048	380192
38	414976	328528
39	384560	264576
40	560960	400416
41	431232	312944
42	414288	274864
43	390400	301056
44	327792	220048
45	340256	180496
46	284672	155472
47	268560	154080
48	263072	147568
49	259920	182896
50	426720	273216
51	426480	313328
52	357296	248000
53	296272	210880
54	226272	162752
55	212272	154224
56	250240	174880
57	269616	169856
58	299616	227040
59	233392	143408
60	177616	114976
61	309664	251968
62	201152	159904
63	164928	121920
64	560400	347200
66	443264	317968
68	417488	273648
70	390896	248208
72	420656	296736
74	368496	200480
76	277136	177680
78	387264	274224
80	542608	442672
82	285920	226160
84	187840	150464
86	217440	160032
88	282064	214608
90	423056	344992
92	502160	440064
94	409984	365088
96	352144	270112
98	330032	261280
100	410800	333488
102	322800	257488
104	300448	246880
106	156544	136496
108	139056	115968
110	220896	180976
112	273552	220944
114	235536	193568
116	229088	152736
118	262464	194928
120	330992	227536
122	418592	311184
124	281488	198592
126	233264	182784
128	458496	408224
132	431856	391152
136	543280	355648
140	360928	264272
144	579856	473456
148	341616	261072
152	479312	327376
156	420688	279824
160	459392	372720
164	329872	288272
168	277856	230288
172	283376	229088
176	272432	212576
180	256384	159664
184	230912	182832
188	263168	233088
192	273920	248816
196	219680	172496
200	223552	164608
204	164064	138080
208	244064	192176
212	178640	137872
216	167104	139104
220	180656	164336
224	205008	187424
228	242224	220368
232	219024	204768
236	236592	222720
240	276288	262736
244	327824	315248
248	346544	330560
252	602608	594144
256	1509856	1485216
264	874752	842544
272	453200	422464
280	393936	380320
288	339040	313632
296	497152	467664
304	628176	608624
312	536144	520144
320	239120	220080
328	144992	124288
336	129808	120672
344	143936	128672
352	120368	95600
360	93376	78320
368	98864	91104
376	102128	97344
384	100224	94272
392	110624	100336
400	100720	87504
408	124288	111584
416	92352	83792
424	116144	102976
432	102320	70448
440	94992	78752
448	87808	77824
456	140160	121856
464	99776	79088
472	97728	79952
480	74208	66176
488	90448	74128
496	84064	65856
504	83232	64016
512	163936	126992
528	215744	192816
544	149568	106976
560	100912	57808
576	85664	66960
592	115248	88624
608	104240	84368
624	73328	59200
640	73280	54144
656	55280	38592
672	64192	41376
688	81584	43440
704	91776	65328
720	108112	87968
736	98528	72608
752	117568	97280
768	115616	99248
784	104848	88576
800	86320	77072
816	97184	78240
832	77072	54992
848	89440	64416
864	89424	67744
880	63536	43568
896	60400	38240
912	60112	44768
928	72016	51056
944	48736	36400
960	54176	40528
976	52320	37984
992	38848	28144
1008	41808	34928
1024	62112	51104
1056	77152	51808
1088	112880	90784
1120	100064	81488
1152	78688	55824
1184	93104	63344
1216	75536	55520
1248	66000	52208
1280	61040	44320
1312	72480	60112
1344	84336	72560
1376	76736	62320
1408	76816	43536
1440	79488	49312
1472	116464	84384
1504	215504	177056
1536	339904	272864
1568	252608	147264
1600	86560	47968
1632	120624	96144
1664	189648	151120
1696	190768	142688
1728	142336	116512
1760	243904	209680
1792	340768	258768
1824	246064	159120
1856	103248	68288
1888	93120	55152
1920	120016	71056
1952	101088	58864
1984	72192	50576
2016	131472	106032
2048	313504	262912
2112	154736	117840
2176	197904	161232
2240	161472	121360
2304	275760	201168
2368	292048	208272
2432	201056	142160
2496	119024	82848
2560	121472	91472
2624	138528	103984
2688	160992	112256
2752	192064	130544
2816	147552	109504
2880	142416	113904
2944	115808	93104
3008	130176	92112
3072	114432	86512
3136	132256	95456
3200	124224	76208
3264	233376	149184
3328	147024	90768
3392	115024	67312
3456	115424	72960
3520	132752	91152
3584	210784	145824
3648	341472	241152
3712	544752	415424
3776	371088	264304
3840	205504	145552
3904	133456	94816
3968	146240	99792
4032	242048	185088
4096	511152	375328
4224	160192	109728
4352	139632	114384
4480	300784	245920
4608	400000	286768
4736	113792	80528
4864	61936	50608
4992	34672	24960
5120	71344	58496
5248	58464	50464
5376	48224	43264
5504	27728	23344
5632	21008	17264
5760	25104	21552
5888	42128	38528
6016	25440	22112
6144	18544	15360
6272	19120	16528
6400	15680	12528
6528	36976	32464
6656	75488	66144
6784	34528	29488
6912	19904	16864
7040	17056	14096
7168	17312	13920
7296	16000	13552
7424	14496	11456
7552	12160	9792
7680	12688	10096
7808	13248	10512
7936	12224	9936
8064	14960	12112
8192	28544	23264
8448	25344	20240
8704	26768	21888
8960	30464	24848
9216	22384	16512
9472	20032	13584
9728	58928	52208
9984	85376	81424
10240	17440	13312
10496	13232	9904
10752	12448	8672
11008	10464	7024
11264	10496	7168
11520	9488	6208
11776	9648	6272
12032	11840	7616
12288	11792	7872
12544	13008	8784
12800	8656	5376
13056	7600	5360
13312	6976	4512
13568	8640	5952
13824	7504	4992
14080	8944	6320
14336	7920	5488
14592	7264	5216
14848	5120	3360
15104	5056	3312
15360	4784	3552
15616	4656	3280
15872	3712	2496
16128	2688	1664
16384	4848	3552
16896	4640	3568
17408	4016	2976
17920	3632	2640
18432	2400	1568
18944	2496	1904
19456	2080	1536
19968	2256	1744
20480	2384	1648
20992	1536	1216
21504	2304	1808
22016	1920	1456
22528	1664	1200
23040	1584	1136
23552	1424	976
24064	1152	816
24576	1280	1056
25088	1312	1056
25600	1360	912
26112	896	768
26624	896	656
27136	1040	704
27648	976	672
28160	912	624
28672	1008	784
29184	1216	976
29696	1280	848
30208	944	688
30720	912	560
31232	1184	896
31744	1152	832
32256	784	576
32768	1888	1312
33792	1536	1008
34816	1248	768
35840	1536	1232
36864	1424	928
37888	944	608
38912	1040	592
39936	1408	1040
40960	1344	1088
41984	1328	1040
43008	1024	688
44032	1056	736
45056	1408	896
46080	720	544
47104	1200	784
48128	1024	624
49152	928	560
50176	1168	976
51200	752	512
52224	880	736
53248	800	624
54272	832	608
55296	928	720
56320	896	768
57344	624	400
58368	528	432
59392	960	816
60416	912	736
61440	784	608
62464	816	624
63488	720	672
64512	816	560
65536	976	688
67584	1280	1024
69632	1344	1216
71680	1296	992
73728	1536	1312
75776	1392	992
77824	1808	1328
79872	944	688
81920	1536	1360
83968	1280	1072
86016	1536	1296
88064	1552	1264
90112	1280	1008
92160	1184	912
94208	1184	928
96256	1120	832
98304	912	720
100352	864	624
102400	1120	928
104448	1344	1040
106496	848	560
108544	832	592
110592	2128	1872
112640	1056	880
114688	1472	1104
116736	1184	864
118784	768	528
120832	688	512
122880	992	752
124928	1216	928
126976	784	592
129024	1632	1376
131072	3344	2816
135168	3472	2864
139264	8032	7792
143360	3600	3216
147456	10016	9632
151552	9072	8608
155648	9968	9696
159744	10352	10128
163840	11568	11136
167936	13184	12752
172032	13328	12736
176128	14816	13056
180224	24688	22736
184320	17248	16016
188416	13648	12768
192512	11856	11072
196608	10800	10192
200704	11664	11008
204800	9840	9568
208896	10368	9984
212992	7872	7504
217088	7264	6880
221184	6560	6064
225280	5712	5184
229376	6352	5840
233472	5600	5024
237568	10688	10272
241664	9424	9120
245760	9872	9456
249856	10688	10096
253952	8848	8352
258048	10704	10176
262144	7728	6880
270336	5680	5056
278528	7200	6560
286720	6480	5728
294912	7248	6640
303104	6512	5600
311296	5824	4816
319488	5232	4560
327680	4512	3888
335872	3376	2960
344064	4640	4080
352256	5360	4640
360448	4656	4080
368640	4128	3536
376832	5024	4544
385024	4560	4000
393216	4544	4048
401408	4224	3744
409600	4096	3808
417792	4352	3952
425984	4864	4592
434176	4208	3744
442368	5824	5440
450560	5696	5392
458752	4144	3808
466944	4480	4224
475136	4160	3888
483328	4144	3936
491520	3040	2928
499712	2240	2096
507904	2672	2560
516096	2464	2304
524288	5568	5328
540672	5648	5392
557056	5040	4928
573440	5120	4912
589824	5872	5584
606208	5056	4848
622592	4592	4464
638976	3696	3632
655360	3648	3552
671744	3104	3008
688128	3280	3072
704512	2672	2544
720896	3072	2976
737280	2608	2544
753664	3408	3248
770048	2864	2672
786432	2784	2704
802816	3200	3120
819200	2928	2832
835584	3232	2992
851968	3008	2928
868352	3632	3456
884736	3280	3152
901120	3312	3232
917504	3056	2992
933888	3408	3328
950272	3408	3360
966656	3520	3472
983040	3024	2912
999424	3440	3344
1015808	2960	2800
1032192	2432	2336
1048576	5328	5088
1081344	3616	3392
1114112	3696	3504
1146880	3600	3392
1179648	3568	3392
1212416	3744	3536
1245184	3552	3440
1277952	3952	3792
1310720	4000	3904
1343488	3440	3216
1376256	3680	3456
1409024	3456	3264
1441792	3392	3232
1474560	3392	3136
1507328	4016	3728
1540096	3648	3440
1572864	3488	3232
1605632	3776	3632
1638400	3184	3056
1671168	3872	3600
1703936	3280	3120
1736704	832	656
1769472	720	544
1802240	704	544
1835008	816	608
1867776	2448	2256
1900544	3728	3520
1933312	3376	3216
1966080	3552	3392
1998848	3984	3760
2031616	3472	3248
2064384	3904	3648
2097152	7232	6880
2162688	6976	6672
2228224	1504	1152
2293760	1488	1104
2359296	1392	1136
2424832	1312	944
2490368	1552	1248
2555904	1520	1008
2621440	1888	1408
2686976	1344	896
2752512	1408	944
2818048	1360	976
2883584	1488	1184
2949120	1744	1312
3014656	1680	1120
3080192	1216	928
3145728	1584	1088
3211264	1088	880
3276800	1616	1200
3342336	1680	1312
3407872	704	400
3473408	672	448
3538944	1024	592
3604480	688	320
3670016	624	288
3735552	960	528
3801088	864	400
3866624	1024	704
3932160	1136	880
3997696	1376	1136
4063232	1120	944
4128768	1440	960
4194304	2784	2160
4325376	2640	1984
4456448	2672	2048
4587520	2400	1616
4718592	1616	752
4849664	1296	544
4980736	1456	752
5111808	1296	688
5242880	1504	768
5373952	1408	672
5505024	1472	656
5636096	1408	912
5767168	1616	944
5898240	1536	720
6029312	1552	848
6160384	1168	624
6291456	1232	528
6422528	1344	720
6553600	1376	592
6684672	1472	816
6815744	1536	784
6946816	1552	912
7077888	1632	864
7208960	1504	928
7340032	1872	1168
7471104	2240	1488
7602176	4384	3584
7733248	3600	2912
7864320	2656	2192
7995392	3600	2928
8126464	3408	2624
8257536	2752	1968
8388608	4064	2656
8650752	3808	2240
8912896	3408	2064
9175040	2960	1760
9437184	2304	1008
9699328	2752	1488
9961472	2256	1104
10223616	2864	1328
10485760	2784	1408
10747904	2464	1248
11010048	2912	1216
11272192	2864	1552
11534336	2640	1232
11796480	2608	1296
12058624	2736	1488
12320768	2768	1440
12582912	3664	2368
12845056	6256	4672
13107200	3904	2672
13369344	3728	2320
13631488	3392	1952
13893632	3344	1824
14155776	3936	2304
14417920	3584	2416
14680064	2736	1824
14942208	2432	1936
15204352	4512	3984
15466496	4128	3728
15728640	2160	1808
15990784	2912	2112
16252928	2400	1920
16515072	18352	10688
16777216	125152	89696
17301504	6832	5568
17825792	5808	5136
18350080	6336	5792
18874368	6176	5536
19398656	5536	4928
19922944	4704	4064
20447232	4928	4144
20971520	4272	3840
21495808	4064	3360
22020096	4288	3728
22544384	4000	3360
23068672	3856	3312
23592960	3968	3392
24117248	7664	6848
24641536	12800	11840
25165824	17184	15536
25690112	16288	15424
26214400	7600	6880
26738688	7584	6640
27262976	7232	6768
27787264	7264	6864
28311552	6368	6016
28835840	9024	7136
29360128	39104	35152
29884416	64	64
30408704	384	384
30932992	640	640
31457280	528	528
31981568	400	400
32505856	512	512
33030144	608	608
33554432	1664	1664
34603008	3504	3488
35651584	2832	2832
36700160	4176	4176
37748736	3904	3904
38797312	3712	3712
39845888	3216	3216
40894464	2528	2528
41943040	1936	1936
42991616	2320	2320
44040192	1888	1888
45088768	1920	1920
46137344	1568	1568
47185920	48	48
48234496	32	32
49283072	64	64
50331648	176	160
51380224	352	352
52428800	784	784
53477376	640	640
54525952	896	896
55574528	816	816
56623104	816	816
57671680	480	480
58720256	160	160
59768832	0	0
60817408	0	0
61865984	0	0
62914560	0	0
63963136	0	0
65011712	64	64
66060288	48	48
67108864	1280	1264
69206016	944	896
71303168	1104	1088
73400320	1472	1472
75497472	1664	1664
77594624	1552	1536
79691776	1872	1872
81788928	2000	2000
83886080	1856	1840
85983232	2048	2048
88080384	2448	2432
90177536	1648	1616
92274688	1120	1120
94371840	96	96
96468992	320	320
98566144	416	416
100663296	400	400
102760448	528	528
104857600	464	464
106954752	448	416
109051904	448	448
111149056	3456	368
113246208	3552	368
115343360	3872	448
117440512	3312	320
119537664	304	64
121634816	160	144
123731968	32	0
125829120	1984	1984
127926272	2112	2112
130023424	2096	2096
132120576	1920	1920
134217728	1056	1056
138412032	30672	14336
142606336	61008	48128
146800640	1120	1088
150994944	1312	1312
155189248	800	800
159383552	48	0
163577856	608	0
167772160	608	112
171966464	128	32
176160768	0	0
180355072	0	0
184549376	16	0
188743680	17728	0
192937984	4672	0
197132288	0	0
201326592	48	16
205520896	0	0
209715200	0	0
213909504	0	0
218103808	0	0
222298112	64	64
226492416	0	0
230686720	3744	3744
234881024	3552	3552
239075328	1728	1728
243269632	0	0
247463936	0	0
251658240	16	16
255852544	0	0
260046848	0	0
264241152	0	0
268435456	0	0
276824064	0	0
285212672	0	0
293601280	0	0
301989888	0	0
310378496	0	0
318767104	0	0
327155712	0	0
335544320	0	0
343932928	0	0
352321536	0	0
360710144	0	0
369098752	0	0
377487360	0	0
385875968	0	0
394264576	0	0
402653184	0	0
411041792	0	0
419430400	0	0
427819008	0	0
436207616	0	0
444596224	0	0
452984832	0	0
461373440	0	0
469762048	0	0
478150656	0	0
486539264	0	0
494927872	0	0
503316480	0	0
511705088	0	0
520093696	0	0
528482304	0	0
536870912	0	0
553648128	0	0
570425344	0	0
587202560	0	0
603979776	0	0
620756992	0	0
637534208	0	0
654311424	0	0
671088640	0	0
687865856	0	0
704643072	0	0
721420288	0	0
738197504	0	0
754974720	0	0
771751936	0	0
788529152	0	0
805306368	0	0
822083584	0	0
838860800	0	0
855638016	0	0
872415232	0	0
889192448	0	0
905969664	0	0
922746880	0	0
939524096	0	0
956301312	0	0
973078528	0	0
989855744	0	0
1006632960	0	0
1023410176	0	0
1040187392	0	0
1056964608	0	0
1073741824	0	0
1107296256	0	0
1140850688	0	0
1174405120	0	0
1207959552	0	0
1241513984	0	0
1275068416	0	0
1308622848	0	0
1342177280	0	0
1375731712	0	0
1409286144	0	0
1442840576	0	0
1476395008	0	0
1509949440	0	0
1543503872	0	0
1577058304	0	0
1610612736	0	0
1644167168	0	0
1677721600	0	0
1711276032	0	0
1744830464	0	0
1778384896	0	0
1811939328	0	0
1845493760	0	0
1879048192	0	0
1912602624	0	0
1946157056	0	0
1979711488	0	0
2013265920	0	0
2046820352	0	0
2080374784	0	0
2113929216	0	0
2147483648	0	0
2214592512	0	0
2281701376	0	0
2348810240	0	0
2415919104	0	0
2483027968	0	0
2550136832	0	0
2617245696	0	0
2684354560	0	0
2751463424	0	0
2818572288	0	0
2885681152	0	0
2952790016	0	0
3019898880	0	0
3087007744	0	0
3154116608	0	0
3221225472	0	0
3288334336	0	0
3355443200	0	0
3422552064	0	0
3489660928	0	0
3556769792	0	0
3623878656	0	0
3690987520	0	0
3758096384	0	0
3825205248	0	0
3892314112	0	0
3959422976	0	0
4026531840	0	0
4093640704	0	0
4160749568	0	0
4227858432	0	0
~~~~~~~~~~Reuse Distance Profiler output end~~~~~~~~~~

DRAM Statistics
 CHANNEL 0
 RQ ROW_BUFFER_HIT:      82469  ROW_BUFFER_MISS:    1150726
 DBUS AVG_CONGESTED_CYCLE:    3.95381
 WQ ROW_BUFFER_HIT:      75567  ROW_BUFFER_MISS:     429104  FULL:          0


CPU 0 Branch Prediction Accuracy: 83.3564% MPKI: 6.24915 Average ROB Occupancy at Mispredict: 84.7333
Branch type MPKI
BRANCH_DIRECT_JUMP: 7.06667e-05
BRANCH_INDIRECT: 0.000322667
BRANCH_CONDITIONAL: 6.18684
BRANCH_DIRECT_CALL: 0.000132
BRANCH_INDIRECT_CALL: 0.00719
BRANCH_RETURN: 0.054594

