
*** ChampSim Multicore Out-of-Order Simulator ***

Warmup Instructions: 500000000
Simulation Instructions: 1500000000
Number of CPUs: 1
Off-chip DRAM Size: 4 GiB Channels: 1 Width: 64-bit Data Rate: 3200 MT/s

VirtualMemory physical capacity: 8588881920 num_ppages: 2096895
VirtualMemory page size: 4096 log2_page_size: 12

CPU 0 runs traces/625.x264_s-39B.champsimtrace.xz
CPU 0 Bimodal branch predictor
Basic BTB sets: 1024 ways: 8 indirect buffer size: 4096 RAS size: 64
Initializing LRU.
Initializing LRU.
Initializing LRU.
Initializing LRU.
Initializing rdLRU.
Initializing LRU.
Initializing LRU.
Heartbeat CPU 0 instructions: 10000000 cycles: 2536021 heartbeat IPC: 3.94319 cumulative IPC: 3.94319 (Simulation time: 0 hr 0 min 40 sec) 
Heartbeat CPU 0 instructions: 20000003 cycles: 5060283 heartbeat IPC: 3.96156 cumulative IPC: 3.95235 (Simulation time: 0 hr 1 min 21 sec) 
Heartbeat CPU 0 instructions: 30000000 cycles: 7593374 heartbeat IPC: 3.94774 cumulative IPC: 3.95081 (Simulation time: 0 hr 2 min 6 sec) 
Heartbeat CPU 0 instructions: 40000003 cycles: 10115386 heartbeat IPC: 3.96509 cumulative IPC: 3.95437 (Simulation time: 0 hr 2 min 54 sec) 
Heartbeat CPU 0 instructions: 50000001 cycles: 12645212 heartbeat IPC: 3.95284 cumulative IPC: 3.95407 (Simulation time: 0 hr 3 min 40 sec) 
Heartbeat CPU 0 instructions: 60000000 cycles: 15173809 heartbeat IPC: 3.95476 cumulative IPC: 3.95418 (Simulation time: 0 hr 4 min 33 sec) 
Heartbeat CPU 0 instructions: 70000000 cycles: 17703661 heartbeat IPC: 3.9528 cumulative IPC: 3.95398 (Simulation time: 0 hr 5 min 4 sec) 
Heartbeat CPU 0 instructions: 80000000 cycles: 20231078 heartbeat IPC: 3.95661 cumulative IPC: 3.95431 (Simulation time: 0 hr 5 min 35 sec) 
Heartbeat CPU 0 instructions: 90000000 cycles: 22772287 heartbeat IPC: 3.93513 cumulative IPC: 3.95217 (Simulation time: 0 hr 6 min 13 sec) 
Heartbeat CPU 0 instructions: 100000000 cycles: 25300843 heartbeat IPC: 3.95483 cumulative IPC: 3.95244 (Simulation time: 0 hr 7 min 1 sec) 
Heartbeat CPU 0 instructions: 110000001 cycles: 27843886 heartbeat IPC: 3.9323 cumulative IPC: 3.9506 (Simulation time: 0 hr 7 min 53 sec) 
Heartbeat CPU 0 instructions: 120000000 cycles: 30566145 heartbeat IPC: 3.67342 cumulative IPC: 3.92591 (Simulation time: 0 hr 8 min 48 sec) 
Heartbeat CPU 0 instructions: 130000004 cycles: 33785539 heartbeat IPC: 3.10618 cumulative IPC: 3.8478 (Simulation time: 0 hr 9 min 51 sec) 
Heartbeat CPU 0 instructions: 140000002 cycles: 36559798 heartbeat IPC: 3.60457 cumulative IPC: 3.82934 (Simulation time: 0 hr 10 min 44 sec) 
Heartbeat CPU 0 instructions: 150000000 cycles: 39122569 heartbeat IPC: 3.90203 cumulative IPC: 3.8341 (Simulation time: 0 hr 11 min 18 sec) 
Heartbeat CPU 0 instructions: 160000001 cycles: 41671485 heartbeat IPC: 3.92324 cumulative IPC: 3.83956 (Simulation time: 0 hr 12 min 9 sec) 
Heartbeat CPU 0 instructions: 170000001 cycles: 44209787 heartbeat IPC: 3.93964 cumulative IPC: 3.8453 (Simulation time: 0 hr 12 min 40 sec) 
Heartbeat CPU 0 instructions: 180000003 cycles: 46761260 heartbeat IPC: 3.91931 cumulative IPC: 3.84934 (Simulation time: 0 hr 13 min 10 sec) 
Heartbeat CPU 0 instructions: 190000002 cycles: 49327524 heartbeat IPC: 3.89671 cumulative IPC: 3.8518 (Simulation time: 0 hr 13 min 41 sec) 
Heartbeat CPU 0 instructions: 200000002 cycles: 51876871 heartbeat IPC: 3.92257 cumulative IPC: 3.85528 (Simulation time: 0 hr 14 min 11 sec) 
Heartbeat CPU 0 instructions: 210000001 cycles: 54447220 heartbeat IPC: 3.89052 cumulative IPC: 3.85695 (Simulation time: 0 hr 14 min 42 sec) 
Heartbeat CPU 0 instructions: 220000000 cycles: 57002706 heartbeat IPC: 3.91315 cumulative IPC: 3.85947 (Simulation time: 0 hr 15 min 12 sec) 
Heartbeat CPU 0 instructions: 230000002 cycles: 59555814 heartbeat IPC: 3.9168 cumulative IPC: 3.86192 (Simulation time: 0 hr 15 min 42 sec) 
Heartbeat CPU 0 instructions: 240000000 cycles: 62118568 heartbeat IPC: 3.90205 cumulative IPC: 3.86358 (Simulation time: 0 hr 16 min 12 sec) 
Heartbeat CPU 0 instructions: 250000002 cycles: 64670030 heartbeat IPC: 3.91932 cumulative IPC: 3.86578 (Simulation time: 0 hr 16 min 42 sec) 
Heartbeat CPU 0 instructions: 260000000 cycles: 67238019 heartbeat IPC: 3.8941 cumulative IPC: 3.86686 (Simulation time: 0 hr 17 min 13 sec) 
Heartbeat CPU 0 instructions: 270000001 cycles: 69791333 heartbeat IPC: 3.91648 cumulative IPC: 3.86868 (Simulation time: 0 hr 17 min 43 sec) 
Heartbeat CPU 0 instructions: 280000003 cycles: 72339766 heartbeat IPC: 3.92398 cumulative IPC: 3.87062 (Simulation time: 0 hr 18 min 35 sec) 
Heartbeat CPU 0 instructions: 290000002 cycles: 74887005 heartbeat IPC: 3.92582 cumulative IPC: 3.8725 (Simulation time: 0 hr 19 min 24 sec) 
Heartbeat CPU 0 instructions: 300000003 cycles: 77435642 heartbeat IPC: 3.92367 cumulative IPC: 3.87419 (Simulation time: 0 hr 20 min 4 sec) 
Heartbeat CPU 0 instructions: 310000004 cycles: 79976589 heartbeat IPC: 3.93554 cumulative IPC: 3.87613 (Simulation time: 0 hr 20 min 50 sec) 
Heartbeat CPU 0 instructions: 320000000 cycles: 82520928 heartbeat IPC: 3.93029 cumulative IPC: 3.8778 (Simulation time: 0 hr 21 min 44 sec) 
Heartbeat CPU 0 instructions: 330000001 cycles: 85065494 heartbeat IPC: 3.92994 cumulative IPC: 3.87936 (Simulation time: 0 hr 22 min 26 sec) 
Heartbeat CPU 0 instructions: 340000001 cycles: 87610404 heartbeat IPC: 3.92941 cumulative IPC: 3.88082 (Simulation time: 0 hr 23 min 9 sec) 
Heartbeat CPU 0 instructions: 350000002 cycles: 90159441 heartbeat IPC: 3.92305 cumulative IPC: 3.88201 (Simulation time: 0 hr 23 min 43 sec) 
Heartbeat CPU 0 instructions: 360000000 cycles: 92705231 heartbeat IPC: 3.92805 cumulative IPC: 3.88328 (Simulation time: 0 hr 24 min 14 sec) 
Heartbeat CPU 0 instructions: 370000002 cycles: 95242926 heartbeat IPC: 3.94058 cumulative IPC: 3.8848 (Simulation time: 0 hr 24 min 54 sec) 
Heartbeat CPU 0 instructions: 380000001 cycles: 97970598 heartbeat IPC: 3.66613 cumulative IPC: 3.87871 (Simulation time: 0 hr 25 min 29 sec) 
Heartbeat CPU 0 instructions: 390000002 cycles: 101374599 heartbeat IPC: 2.93772 cumulative IPC: 3.84712 (Simulation time: 0 hr 26 min 19 sec) 
Heartbeat CPU 0 instructions: 400000001 cycles: 103981293 heartbeat IPC: 3.83628 cumulative IPC: 3.84685 (Simulation time: 0 hr 27 min 8 sec) 
Heartbeat CPU 0 instructions: 410000000 cycles: 106569431 heartbeat IPC: 3.86378 cumulative IPC: 3.84726 (Simulation time: 0 hr 27 min 59 sec) 
Heartbeat CPU 0 instructions: 420000003 cycles: 109160528 heartbeat IPC: 3.85937 cumulative IPC: 3.84754 (Simulation time: 0 hr 28 min 57 sec) 
Heartbeat CPU 0 instructions: 430000001 cycles: 111756825 heartbeat IPC: 3.85164 cumulative IPC: 3.84764 (Simulation time: 0 hr 29 min 55 sec) 
Heartbeat CPU 0 instructions: 440000001 cycles: 114352955 heartbeat IPC: 3.85189 cumulative IPC: 3.84774 (Simulation time: 0 hr 30 min 50 sec) 
Heartbeat CPU 0 instructions: 450000000 cycles: 116961984 heartbeat IPC: 3.83284 cumulative IPC: 3.8474 (Simulation time: 0 hr 31 min 23 sec) 
Heartbeat CPU 0 instructions: 460000001 cycles: 119571398 heartbeat IPC: 3.83228 cumulative IPC: 3.84707 (Simulation time: 0 hr 32 min 11 sec) 
Heartbeat CPU 0 instructions: 470000001 cycles: 122182059 heartbeat IPC: 3.83045 cumulative IPC: 3.84672 (Simulation time: 0 hr 33 min 10 sec) 
Heartbeat CPU 0 instructions: 480000002 cycles: 124785322 heartbeat IPC: 3.84133 cumulative IPC: 3.84661 (Simulation time: 0 hr 34 min 5 sec) 
Heartbeat CPU 0 instructions: 490000001 cycles: 127395735 heartbeat IPC: 3.83081 cumulative IPC: 3.84628 (Simulation time: 0 hr 34 min 56 sec) 
Heartbeat CPU 0 instructions: 500000001 cycles: 129993866 heartbeat IPC: 3.84892 cumulative IPC: 3.84634 (Simulation time: 0 hr 35 min 55 sec) 

Warmup complete CPU 0 instructions: 500000001 cycles: 129993866 (Simulation time: 0 hr 35 min 55 sec) 

Heartbeat CPU 0 instructions: 510000002 cycles: 134158970 heartbeat IPC: 2.4009 cumulative IPC: 2.4009 (Simulation time: 0 hr 36 min 36 sec) 
Heartbeat CPU 0 instructions: 520000002 cycles: 138313538 heartbeat IPC: 2.40699 cumulative IPC: 2.40394 (Simulation time: 0 hr 37 min 16 sec) 
Heartbeat CPU 0 instructions: 530000003 cycles: 142513666 heartbeat IPC: 2.38088 cumulative IPC: 2.3962 (Simulation time: 0 hr 38 min 17 sec) 
Heartbeat CPU 0 instructions: 540000003 cycles: 146667342 heartbeat IPC: 2.40751 cumulative IPC: 2.39902 (Simulation time: 0 hr 38 min 53 sec) 
Heartbeat CPU 0 instructions: 550000004 cycles: 150813109 heartbeat IPC: 2.4121 cumulative IPC: 2.40162 (Simulation time: 0 hr 39 min 27 sec) 
Heartbeat CPU 0 instructions: 560000000 cycles: 154955915 heartbeat IPC: 2.41382 cumulative IPC: 2.40365 (Simulation time: 0 hr 40 min 1 sec) 
Heartbeat CPU 0 instructions: 570000001 cycles: 159086370 heartbeat IPC: 2.42104 cumulative IPC: 2.40612 (Simulation time: 0 hr 40 min 36 sec) 
Heartbeat CPU 0 instructions: 580000001 cycles: 170692994 heartbeat IPC: 0.861577 cumulative IPC: 1.96564 (Simulation time: 0 hr 42 min 24 sec) 
Heartbeat CPU 0 instructions: 590000000 cycles: 174870497 heartbeat IPC: 2.39377 cumulative IPC: 2.0055 (Simulation time: 0 hr 43 min 36 sec) 
Heartbeat CPU 0 instructions: 600000000 cycles: 179393888 heartbeat IPC: 2.21073 cumulative IPC: 2.02429 (Simulation time: 0 hr 44 min 6 sec) 
Heartbeat CPU 0 instructions: 610000000 cycles: 183325920 heartbeat IPC: 2.54321 cumulative IPC: 2.06255 (Simulation time: 0 hr 44 min 34 sec) 
Heartbeat CPU 0 instructions: 620000000 cycles: 187297974 heartbeat IPC: 2.51759 cumulative IPC: 2.09409 (Simulation time: 0 hr 45 min 1 sec) 
Heartbeat CPU 0 instructions: 630000001 cycles: 191299299 heartbeat IPC: 2.49917 cumulative IPC: 2.12053 (Simulation time: 0 hr 45 min 40 sec) 
Heartbeat CPU 0 instructions: 640000004 cycles: 195281659 heartbeat IPC: 2.51107 cumulative IPC: 2.14435 (Simulation time: 0 hr 46 min 29 sec) 
Heartbeat CPU 0 instructions: 650000003 cycles: 199279599 heartbeat IPC: 2.50129 cumulative IPC: 2.16495 (Simulation time: 0 hr 47 min 19 sec) 
Heartbeat CPU 0 instructions: 660000001 cycles: 203276780 heartbeat IPC: 2.50176 cumulative IPC: 2.18332 (Simulation time: 0 hr 48 min 9 sec) 
Heartbeat CPU 0 instructions: 670000003 cycles: 207233520 heartbeat IPC: 2.52733 cumulative IPC: 2.20094 (Simulation time: 0 hr 48 min 59 sec) 
Heartbeat CPU 0 instructions: 680000002 cycles: 211173046 heartbeat IPC: 2.53838 cumulative IPC: 2.21732 (Simulation time: 0 hr 49 min 43 sec) 
Heartbeat CPU 0 instructions: 690000004 cycles: 215104795 heartbeat IPC: 2.5434 cumulative IPC: 2.23238 (Simulation time: 0 hr 50 min 10 sec) 
Heartbeat CPU 0 instructions: 700000003 cycles: 218966446 heartbeat IPC: 2.58957 cumulative IPC: 2.24788 (Simulation time: 0 hr 50 min 38 sec) 
Heartbeat CPU 0 instructions: 710000001 cycles: 222862527 heartbeat IPC: 2.56668 cumulative IPC: 2.26126 (Simulation time: 0 hr 51 min 5 sec) 
Heartbeat CPU 0 instructions: 720000000 cycles: 226790075 heartbeat IPC: 2.54612 cumulative IPC: 2.27282 (Simulation time: 0 hr 51 min 33 sec) 
Heartbeat CPU 0 instructions: 730000002 cycles: 230720630 heartbeat IPC: 2.54417 cumulative IPC: 2.28341 (Simulation time: 0 hr 52 min 1 sec) 
Heartbeat CPU 0 instructions: 740000004 cycles: 234652227 heartbeat IPC: 2.5435 cumulative IPC: 2.29318 (Simulation time: 0 hr 52 min 29 sec) 
Heartbeat CPU 0 instructions: 750000001 cycles: 238592708 heartbeat IPC: 2.53776 cumulative IPC: 2.30205 (Simulation time: 0 hr 52 min 56 sec) 
Heartbeat CPU 0 instructions: 760000000 cycles: 242511895 heartbeat IPC: 2.55155 cumulative IPC: 2.31074 (Simulation time: 0 hr 53 min 24 sec) 
Heartbeat CPU 0 instructions: 770000001 cycles: 246398448 heartbeat IPC: 2.57297 cumulative IPC: 2.3195 (Simulation time: 0 hr 53 min 52 sec) 
Heartbeat CPU 0 instructions: 780000004 cycles: 250279206 heartbeat IPC: 2.57682 cumulative IPC: 2.3278 (Simulation time: 0 hr 54 min 20 sec) 
Heartbeat CPU 0 instructions: 790000001 cycles: 254407465 heartbeat IPC: 2.42233 cumulative IPC: 2.33094 (Simulation time: 0 hr 54 min 53 sec) 
Heartbeat CPU 0 instructions: 800000000 cycles: 258657887 heartbeat IPC: 2.35271 cumulative IPC: 2.33165 (Simulation time: 0 hr 55 min 22 sec) 
Heartbeat CPU 0 instructions: 810000002 cycles: 262939450 heartbeat IPC: 2.3356 cumulative IPC: 2.33178 (Simulation time: 0 hr 55 min 52 sec) 
Heartbeat CPU 0 instructions: 820000000 cycles: 267258269 heartbeat IPC: 2.31545 cumulative IPC: 2.33127 (Simulation time: 0 hr 56 min 21 sec) 
Heartbeat CPU 0 instructions: 830000001 cycles: 271534840 heartbeat IPC: 2.33832 cumulative IPC: 2.33148 (Simulation time: 0 hr 56 min 50 sec) 
Heartbeat CPU 0 instructions: 840000004 cycles: 275788511 heartbeat IPC: 2.35091 cumulative IPC: 2.33205 (Simulation time: 0 hr 57 min 20 sec) 
Heartbeat CPU 0 instructions: 850000001 cycles: 280053044 heartbeat IPC: 2.34492 cumulative IPC: 2.33241 (Simulation time: 0 hr 57 min 50 sec) 
Heartbeat CPU 0 instructions: 860000002 cycles: 284409264 heartbeat IPC: 2.29557 cumulative IPC: 2.33137 (Simulation time: 0 hr 58 min 20 sec) 
Heartbeat CPU 0 instructions: 870000002 cycles: 288795367 heartbeat IPC: 2.27993 cumulative IPC: 2.32995 (Simulation time: 0 hr 58 min 55 sec) 
Heartbeat CPU 0 instructions: 880000003 cycles: 293197276 heartbeat IPC: 2.27174 cumulative IPC: 2.32838 (Simulation time: 0 hr 59 min 44 sec) 
Heartbeat CPU 0 instructions: 890000002 cycles: 297593298 heartbeat IPC: 2.27478 cumulative IPC: 2.32698 (Simulation time: 1 hr 0 min 18 sec) 
Heartbeat CPU 0 instructions: 900000002 cycles: 301908766 heartbeat IPC: 2.31725 cumulative IPC: 2.32673 (Simulation time: 1 hr 1 min 2 sec) 
Heartbeat CPU 0 instructions: 910000002 cycles: 306205412 heartbeat IPC: 2.3274 cumulative IPC: 2.32675 (Simulation time: 1 hr 1 min 35 sec) 
Heartbeat CPU 0 instructions: 920000000 cycles: 310362117 heartbeat IPC: 2.40575 cumulative IPC: 2.32857 (Simulation time: 1 hr 2 min 5 sec) 
Heartbeat CPU 0 instructions: 930000003 cycles: 314547340 heartbeat IPC: 2.38936 cumulative IPC: 2.32995 (Simulation time: 1 hr 2 min 34 sec) 
Heartbeat CPU 0 instructions: 940000004 cycles: 318786349 heartbeat IPC: 2.35904 cumulative IPC: 2.3306 (Simulation time: 1 hr 3 min 5 sec) 
Heartbeat CPU 0 instructions: 950000001 cycles: 323050546 heartbeat IPC: 2.34511 cumulative IPC: 2.33092 (Simulation time: 1 hr 3 min 34 sec) 
Heartbeat CPU 0 instructions: 960000000 cycles: 327323266 heartbeat IPC: 2.34043 cumulative IPC: 2.33113 (Simulation time: 1 hr 4 min 5 sec) 
Heartbeat CPU 0 instructions: 970000002 cycles: 331610009 heartbeat IPC: 2.33277 cumulative IPC: 2.33116 (Simulation time: 1 hr 4 min 35 sec) 
Heartbeat CPU 0 instructions: 980000003 cycles: 335895551 heartbeat IPC: 2.33343 cumulative IPC: 2.33121 (Simulation time: 1 hr 5 min 5 sec) 
Heartbeat CPU 0 instructions: 990000003 cycles: 340163108 heartbeat IPC: 2.34326 cumulative IPC: 2.33145 (Simulation time: 1 hr 5 min 35 sec) 
Heartbeat CPU 0 instructions: 1000000001 cycles: 344401627 heartbeat IPC: 2.35931 cumulative IPC: 2.33201 (Simulation time: 1 hr 6 min 4 sec) 
Heartbeat CPU 0 instructions: 1010000001 cycles: 348637886 heartbeat IPC: 2.36057 cumulative IPC: 2.33256 (Simulation time: 1 hr 6 min 52 sec) 
Heartbeat CPU 0 instructions: 1020000003 cycles: 352868922 heartbeat IPC: 2.36349 cumulative IPC: 2.33315 (Simulation time: 1 hr 7 min 33 sec) 
Heartbeat CPU 0 instructions: 1030000004 cycles: 360361733 heartbeat IPC: 1.33461 cumulative IPC: 2.30067 (Simulation time: 1 hr 8 min 6 sec) 
Heartbeat CPU 0 instructions: 1040000000 cycles: 370125099 heartbeat IPC: 1.02424 cumulative IPC: 2.24877 (Simulation time: 1 hr 8 min 45 sec) 
Heartbeat CPU 0 instructions: 1050000001 cycles: 374374092 heartbeat IPC: 2.3535 cumulative IPC: 2.25059 (Simulation time: 1 hr 9 min 16 sec) 
Heartbeat CPU 0 instructions: 1060000004 cycles: 378426478 heartbeat IPC: 2.46768 cumulative IPC: 2.25413 (Simulation time: 1 hr 9 min 46 sec) 
Heartbeat CPU 0 instructions: 1070000003 cycles: 382438974 heartbeat IPC: 2.49221 cumulative IPC: 2.25792 (Simulation time: 1 hr 10 min 15 sec) 
Heartbeat CPU 0 instructions: 1080000000 cycles: 386460314 heartbeat IPC: 2.48673 cumulative IPC: 2.2615 (Simulation time: 1 hr 10 min 45 sec) 
Heartbeat CPU 0 instructions: 1090000000 cycles: 390539586 heartbeat IPC: 2.45142 cumulative IPC: 2.26448 (Simulation time: 1 hr 11 min 15 sec) 
Heartbeat CPU 0 instructions: 1100000002 cycles: 394568309 heartbeat IPC: 2.48218 cumulative IPC: 2.26779 (Simulation time: 1 hr 11 min 45 sec) 
Heartbeat CPU 0 instructions: 1110000004 cycles: 398726656 heartbeat IPC: 2.4048 cumulative IPC: 2.26991 (Simulation time: 1 hr 12 min 14 sec) 
Heartbeat CPU 0 instructions: 1120000004 cycles: 402718491 heartbeat IPC: 2.50511 cumulative IPC: 2.27336 (Simulation time: 1 hr 12 min 56 sec) 
Heartbeat CPU 0 instructions: 1130000002 cycles: 406726026 heartbeat IPC: 2.4953 cumulative IPC: 2.27657 (Simulation time: 1 hr 13 min 49 sec) 
Heartbeat CPU 0 instructions: 1140000002 cycles: 410857460 heartbeat IPC: 2.42047 cumulative IPC: 2.27869 (Simulation time: 1 hr 14 min 43 sec) 
Heartbeat CPU 0 instructions: 1150000000 cycles: 414950649 heartbeat IPC: 2.44308 cumulative IPC: 2.28105 (Simulation time: 1 hr 15 min 37 sec) 
Heartbeat CPU 0 instructions: 1160000000 cycles: 419147840 heartbeat IPC: 2.38255 cumulative IPC: 2.28252 (Simulation time: 1 hr 16 min 31 sec) 
Heartbeat CPU 0 instructions: 1170000004 cycles: 423274529 heartbeat IPC: 2.42325 cumulative IPC: 2.2845 (Simulation time: 1 hr 17 min 22 sec) 
Heartbeat CPU 0 instructions: 1180000001 cycles: 427450434 heartbeat IPC: 2.39469 cumulative IPC: 2.28605 (Simulation time: 1 hr 17 min 58 sec) 
Heartbeat CPU 0 instructions: 1190000003 cycles: 431569147 heartbeat IPC: 2.42794 cumulative IPC: 2.28799 (Simulation time: 1 hr 18 min 32 sec) 
Heartbeat CPU 0 instructions: 1200000001 cycles: 435637315 heartbeat IPC: 2.45811 cumulative IPC: 2.29025 (Simulation time: 1 hr 19 min 17 sec) 
Heartbeat CPU 0 instructions: 1210000003 cycles: 439787290 heartbeat IPC: 2.40965 cumulative IPC: 2.29185 (Simulation time: 1 hr 19 min 59 sec) 
Heartbeat CPU 0 instructions: 1220000003 cycles: 443903161 heartbeat IPC: 2.42962 cumulative IPC: 2.29366 (Simulation time: 1 hr 20 min 48 sec) 
Heartbeat CPU 0 instructions: 1230000002 cycles: 448213647 heartbeat IPC: 2.31992 cumulative IPC: 2.29401 (Simulation time: 1 hr 21 min 39 sec) 
Heartbeat CPU 0 instructions: 1240000003 cycles: 452301546 heartbeat IPC: 2.44624 cumulative IPC: 2.29594 (Simulation time: 1 hr 22 min 33 sec) 
Heartbeat CPU 0 instructions: 1250000002 cycles: 456397415 heartbeat IPC: 2.44148 cumulative IPC: 2.29777 (Simulation time: 1 hr 23 min 27 sec) 
Heartbeat CPU 0 instructions: 1260000002 cycles: 460455440 heartbeat IPC: 2.46425 cumulative IPC: 2.29981 (Simulation time: 1 hr 24 min 20 sec) 
Heartbeat CPU 0 instructions: 1270000003 cycles: 464520512 heartbeat IPC: 2.45998 cumulative IPC: 2.30176 (Simulation time: 1 hr 25 min 14 sec) 
Heartbeat CPU 0 instructions: 1280000004 cycles: 468646176 heartbeat IPC: 2.42385 cumulative IPC: 2.30325 (Simulation time: 1 hr 26 min 8 sec) 
Heartbeat CPU 0 instructions: 1290000001 cycles: 472656627 heartbeat IPC: 2.49348 cumulative IPC: 2.30547 (Simulation time: 1 hr 27 min 2 sec) 
Heartbeat CPU 0 instructions: 1300000003 cycles: 484697173 heartbeat IPC: 0.830527 cumulative IPC: 2.25541 (Simulation time: 1 hr 29 min 10 sec) 
Heartbeat CPU 0 instructions: 1310000001 cycles: 488496880 heartbeat IPC: 2.63178 cumulative IPC: 2.2594 (Simulation time: 1 hr 30 min 11 sec) 
Heartbeat CPU 0 instructions: 1320000002 cycles: 493426957 heartbeat IPC: 2.02837 cumulative IPC: 2.25626 (Simulation time: 1 hr 30 min 56 sec) 
Heartbeat CPU 0 instructions: 1330000000 cycles: 497637324 heartbeat IPC: 2.37509 cumulative IPC: 2.25762 (Simulation time: 1 hr 31 min 31 sec) 
Heartbeat CPU 0 instructions: 1340000004 cycles: 501383650 heartbeat IPC: 2.66928 cumulative IPC: 2.26177 (Simulation time: 1 hr 32 min 4 sec) 
Heartbeat CPU 0 instructions: 1350000003 cycles: 505276946 heartbeat IPC: 2.56852 cumulative IPC: 2.26496 (Simulation time: 1 hr 32 min 38 sec) 
Heartbeat CPU 0 instructions: 1360000004 cycles: 509200951 heartbeat IPC: 2.54842 cumulative IPC: 2.26789 (Simulation time: 1 hr 33 min 19 sec) 
Heartbeat CPU 0 instructions: 1370000003 cycles: 513068986 heartbeat IPC: 2.58529 cumulative IPC: 2.2711 (Simulation time: 1 hr 34 min 16 sec) 
Heartbeat CPU 0 instructions: 1380000002 cycles: 517017357 heartbeat IPC: 2.53269 cumulative IPC: 2.27376 (Simulation time: 1 hr 35 min 2 sec) 
Heartbeat CPU 0 instructions: 1390000003 cycles: 520842266 heartbeat IPC: 2.61444 cumulative IPC: 2.2771 (Simulation time: 1 hr 35 min 34 sec) 
Heartbeat CPU 0 instructions: 1400000002 cycles: 524700014 heartbeat IPC: 2.59219 cumulative IPC: 2.28018 (Simulation time: 1 hr 36 min 8 sec) 
Heartbeat CPU 0 instructions: 1410000001 cycles: 528592675 heartbeat IPC: 2.56894 cumulative IPC: 2.283 (Simulation time: 1 hr 36 min 41 sec) 
Heartbeat CPU 0 instructions: 1420000001 cycles: 532490702 heartbeat IPC: 2.5654 cumulative IPC: 2.28573 (Simulation time: 1 hr 37 min 14 sec) 
Heartbeat CPU 0 instructions: 1430000004 cycles: 536418894 heartbeat IPC: 2.5457 cumulative IPC: 2.28824 (Simulation time: 1 hr 37 min 48 sec) 
Heartbeat CPU 0 instructions: 1440000003 cycles: 540199937 heartbeat IPC: 2.64477 cumulative IPC: 2.29153 (Simulation time: 1 hr 38 min 21 sec) 
Heartbeat CPU 0 instructions: 1450000001 cycles: 544163240 heartbeat IPC: 2.52315 cumulative IPC: 2.29375 (Simulation time: 1 hr 38 min 54 sec) 
Heartbeat CPU 0 instructions: 1460000001 cycles: 547969175 heartbeat IPC: 2.62748 cumulative IPC: 2.29679 (Simulation time: 1 hr 39 min 28 sec) 
Heartbeat CPU 0 instructions: 1470000002 cycles: 551919624 heartbeat IPC: 2.53136 cumulative IPC: 2.29898 (Simulation time: 1 hr 40 min 14 sec) 
Heartbeat CPU 0 instructions: 1480000000 cycles: 555844163 heartbeat IPC: 2.54807 cumulative IPC: 2.30128 (Simulation time: 1 hr 41 min 14 sec) 
Heartbeat CPU 0 instructions: 1490000000 cycles: 559663394 heartbeat IPC: 2.61833 cumulative IPC: 2.3041 (Simulation time: 1 hr 41 min 51 sec) 
Heartbeat CPU 0 instructions: 1500000003 cycles: 563532821 heartbeat IPC: 2.58436 cumulative IPC: 2.3066 (Simulation time: 1 hr 42 min 49 sec) 
Heartbeat CPU 0 instructions: 1510000001 cycles: 575318828 heartbeat IPC: 0.848464 cumulative IPC: 2.26801 (Simulation time: 1 hr 44 min 31 sec) 
Heartbeat CPU 0 instructions: 1520000000 cycles: 579344184 heartbeat IPC: 2.48425 cumulative IPC: 2.26994 (Simulation time: 1 hr 46 min 17 sec) 
Heartbeat CPU 0 instructions: 1530000003 cycles: 584052008 heartbeat IPC: 2.12412 cumulative IPC: 2.26843 (Simulation time: 1 hr 47 min 48 sec) 
Heartbeat CPU 0 instructions: 1540000002 cycles: 588431698 heartbeat IPC: 2.28327 cumulative IPC: 2.26857 (Simulation time: 1 hr 48 min 54 sec) 
Heartbeat CPU 0 instructions: 1550000002 cycles: 592602922 heartbeat IPC: 2.39738 cumulative IPC: 2.26974 (Simulation time: 1 hr 49 min 53 sec) 
Heartbeat CPU 0 instructions: 1560000003 cycles: 596741623 heartbeat IPC: 2.41622 cumulative IPC: 2.27103 (Simulation time: 1 hr 50 min 51 sec) 
Heartbeat CPU 0 instructions: 1570000000 cycles: 600888967 heartbeat IPC: 2.41118 cumulative IPC: 2.27227 (Simulation time: 1 hr 51 min 32 sec) 
Heartbeat CPU 0 instructions: 1580000003 cycles: 605024463 heartbeat IPC: 2.41809 cumulative IPC: 2.27354 (Simulation time: 1 hr 52 min 7 sec) 
Heartbeat CPU 0 instructions: 1590000001 cycles: 609199195 heartbeat IPC: 2.39536 cumulative IPC: 2.2746 (Simulation time: 1 hr 52 min 43 sec) 
Heartbeat CPU 0 instructions: 1600000004 cycles: 613384906 heartbeat IPC: 2.38908 cumulative IPC: 2.27559 (Simulation time: 1 hr 53 min 21 sec) 
Heartbeat CPU 0 instructions: 1610000001 cycles: 617568448 heartbeat IPC: 2.39032 cumulative IPC: 2.27657 (Simulation time: 1 hr 53 min 58 sec) 
Heartbeat CPU 0 instructions: 1620000001 cycles: 621755609 heartbeat IPC: 2.38825 cumulative IPC: 2.27753 (Simulation time: 1 hr 54 min 35 sec) 
Heartbeat CPU 0 instructions: 1630000002 cycles: 633217221 heartbeat IPC: 0.872478 cumulative IPC: 2.24552 (Simulation time: 1 hr 56 min 0 sec) 
Heartbeat CPU 0 instructions: 1640000000 cycles: 637545917 heartbeat IPC: 2.31016 cumulative IPC: 2.24608 (Simulation time: 1 hr 56 min 58 sec) 
Heartbeat CPU 0 instructions: 1650000001 cycles: 642147732 heartbeat IPC: 2.17306 cumulative IPC: 2.24542 (Simulation time: 1 hr 57 min 34 sec) 
Heartbeat CPU 0 instructions: 1660000003 cycles: 646368187 heartbeat IPC: 2.36941 cumulative IPC: 2.24643 (Simulation time: 1 hr 58 min 11 sec) 
Heartbeat CPU 0 instructions: 1670000000 cycles: 650567812 heartbeat IPC: 2.38116 cumulative IPC: 2.24752 (Simulation time: 1 hr 58 min 47 sec) 
Heartbeat CPU 0 instructions: 1680000001 cycles: 654805052 heartbeat IPC: 2.36003 cumulative IPC: 2.24843 (Simulation time: 1 hr 59 min 25 sec) 
Heartbeat CPU 0 instructions: 1690000001 cycles: 659051525 heartbeat IPC: 2.3549 cumulative IPC: 2.24928 (Simulation time: 2 hr 0 min 8 sec) 
Heartbeat CPU 0 instructions: 1700000004 cycles: 663230309 heartbeat IPC: 2.39304 cumulative IPC: 2.25041 (Simulation time: 2 hr 0 min 58 sec) 
Heartbeat CPU 0 instructions: 1710000003 cycles: 667427319 heartbeat IPC: 2.38265 cumulative IPC: 2.25144 (Simulation time: 2 hr 2 min 5 sec) 
Heartbeat CPU 0 instructions: 1720000001 cycles: 671647211 heartbeat IPC: 2.36973 cumulative IPC: 2.25236 (Simulation time: 2 hr 2 min 59 sec) 
Heartbeat CPU 0 instructions: 1730000003 cycles: 675829645 heartbeat IPC: 2.39095 cumulative IPC: 2.25343 (Simulation time: 2 hr 3 min 37 sec) 
Heartbeat CPU 0 instructions: 1740000002 cycles: 680012537 heartbeat IPC: 2.39069 cumulative IPC: 2.25447 (Simulation time: 2 hr 4 min 16 sec) 
Heartbeat CPU 0 instructions: 1750000004 cycles: 691634248 heartbeat IPC: 0.860459 cumulative IPC: 2.22562 (Simulation time: 2 hr 5 min 46 sec) 
Heartbeat CPU 0 instructions: 1760000003 cycles: 696102455 heartbeat IPC: 2.23803 cumulative IPC: 2.22572 (Simulation time: 2 hr 6 min 44 sec) 
Heartbeat CPU 0 instructions: 1770000002 cycles: 700329343 heartbeat IPC: 2.36581 cumulative IPC: 2.22676 (Simulation time: 2 hr 7 min 13 sec) 
Heartbeat CPU 0 instructions: 1780000003 cycles: 704233885 heartbeat IPC: 2.56112 cumulative IPC: 2.22903 (Simulation time: 2 hr 7 min 41 sec) 
Heartbeat CPU 0 instructions: 1790000000 cycles: 708168530 heartbeat IPC: 2.54152 cumulative IPC: 2.23116 (Simulation time: 2 hr 8 min 9 sec) 
Heartbeat CPU 0 instructions: 1800000000 cycles: 712132447 heartbeat IPC: 2.52276 cumulative IPC: 2.23315 (Simulation time: 2 hr 8 min 38 sec) 
Heartbeat CPU 0 instructions: 1810000001 cycles: 716070581 heartbeat IPC: 2.53927 cumulative IPC: 2.2352 (Simulation time: 2 hr 9 min 6 sec) 
Heartbeat CPU 0 instructions: 1820000002 cycles: 720013057 heartbeat IPC: 2.53648 cumulative IPC: 2.23722 (Simulation time: 2 hr 9 min 37 sec) 
Heartbeat CPU 0 instructions: 1830000003 cycles: 723954220 heartbeat IPC: 2.53732 cumulative IPC: 2.23921 (Simulation time: 2 hr 10 min 27 sec) 
Heartbeat CPU 0 instructions: 1840000002 cycles: 727887472 heartbeat IPC: 2.54243 cumulative IPC: 2.2412 (Simulation time: 2 hr 11 min 16 sec) 
Heartbeat CPU 0 instructions: 1850000004 cycles: 731799187 heartbeat IPC: 2.55642 cumulative IPC: 2.24325 (Simulation time: 2 hr 12 min 4 sec) 
Heartbeat CPU 0 instructions: 1860000000 cycles: 735733770 heartbeat IPC: 2.54156 cumulative IPC: 2.24519 (Simulation time: 2 hr 12 min 53 sec) 
Heartbeat CPU 0 instructions: 1870000004 cycles: 739672773 heartbeat IPC: 2.53871 cumulative IPC: 2.24708 (Simulation time: 2 hr 13 min 42 sec) 
Heartbeat CPU 0 instructions: 1880000002 cycles: 743638291 heartbeat IPC: 2.52174 cumulative IPC: 2.24886 (Simulation time: 2 hr 14 min 31 sec) 
Heartbeat CPU 0 instructions: 1890000000 cycles: 747620608 heartbeat IPC: 2.5111 cumulative IPC: 2.25055 (Simulation time: 2 hr 15 min 13 sec) 
Heartbeat CPU 0 instructions: 1900000001 cycles: 751630007 heartbeat IPC: 2.49414 cumulative IPC: 2.25212 (Simulation time: 2 hr 15 min 42 sec) 
Heartbeat CPU 0 instructions: 1910000002 cycles: 755648187 heartbeat IPC: 2.48869 cumulative IPC: 2.25364 (Simulation time: 2 hr 16 min 11 sec) 
Heartbeat CPU 0 instructions: 1920000000 cycles: 759659092 heartbeat IPC: 2.4932 cumulative IPC: 2.25517 (Simulation time: 2 hr 16 min 40 sec) 
Heartbeat CPU 0 instructions: 1930000003 cycles: 763651940 heartbeat IPC: 2.50448 cumulative IPC: 2.25674 (Simulation time: 2 hr 17 min 10 sec) 
Heartbeat CPU 0 instructions: 1940000004 cycles: 767647845 heartbeat IPC: 2.50256 cumulative IPC: 2.25828 (Simulation time: 2 hr 17 min 40 sec) 
Heartbeat CPU 0 instructions: 1950000000 cycles: 771661124 heartbeat IPC: 2.49173 cumulative IPC: 2.25974 (Simulation time: 2 hr 18 min 10 sec) 
Heartbeat CPU 0 instructions: 1960000003 cycles: 775671637 heartbeat IPC: 2.49345 cumulative IPC: 2.26119 (Simulation time: 2 hr 18 min 51 sec) 
Heartbeat CPU 0 instructions: 1970000003 cycles: 779678023 heartbeat IPC: 2.49602 cumulative IPC: 2.26264 (Simulation time: 2 hr 19 min 40 sec) 
Heartbeat CPU 0 instructions: 1980000000 cycles: 783693136 heartbeat IPC: 2.49059 cumulative IPC: 2.26404 (Simulation time: 2 hr 20 min 29 sec) 
Heartbeat CPU 0 instructions: 1990000002 cycles: 787686666 heartbeat IPC: 2.50405 cumulative IPC: 2.2655 (Simulation time: 2 hr 21 min 18 sec) 
*** Reached end of trace: traces/625.x264_s-39B.champsimtrace.xz
Heartbeat CPU 0 instructions: 2000000004 cycles: 791526846 heartbeat IPC: 2.60405 cumulative IPC: 2.26746 (Simulation time: 2 hr 21 min 47 sec) 
Finished CPU 0 instructions: 1500000003 cycles: 661532980 cumulative IPC: 2.26746 (Simulation time: 2 hr 21 min 47 sec) 

ChampSim completed all CPUs

Region of Interest Statistics

CPU 0 cumulative IPC: 2.26746 instructions: 1500000003 cycles: 661532980
cpu0_DTLB TOTAL     ACCESS:  190346426  HIT:  188837804  MISS:    1508622
cpu0_DTLB LOAD      ACCESS:  138408511  HIT:  137357918  MISS:    1050593
cpu0_DTLB RFO       ACCESS:   51937915  HIT:   51479886  MISS:     458029
cpu0_DTLB PREFETCH  ACCESS:          0  HIT:          0  MISS:          0
cpu0_DTLB WRITEBACK ACCESS:          0  HIT:          0  MISS:          0
cpu0_DTLB TRANSLATION ACCESS:          0  HIT:          0  MISS:          0
cpu0_DTLB PREFETCH  REQUESTED:          0  ISSUED:          0  USEFUL:          0  USELESS:          0
cpu0_DTLB AVERAGE MISS LATENCY: 10.9936 cycles
cpu0_ITLB TOTAL     ACCESS:   87563265  HIT:   87560563  MISS:       2702
cpu0_ITLB LOAD      ACCESS:   87563265  HIT:   87560563  MISS:       2702
cpu0_ITLB RFO       ACCESS:          0  HIT:          0  MISS:          0
cpu0_ITLB PREFETCH  ACCESS:          0  HIT:          0  MISS:          0
cpu0_ITLB WRITEBACK ACCESS:          0  HIT:          0  MISS:          0
cpu0_ITLB TRANSLATION ACCESS:          0  HIT:          0  MISS:          0
cpu0_ITLB PREFETCH  REQUESTED:          0  ISSUED:          0  USEFUL:          0  USELESS:          0
cpu0_ITLB AVERAGE MISS LATENCY: 16.1647 cycles
cpu0_L1I TOTAL     ACCESS:   57418349  HIT:   54392288  MISS:    3026061
cpu0_L1I LOAD      ACCESS:   57418349  HIT:   54392288  MISS:    3026061
cpu0_L1I RFO       ACCESS:          0  HIT:          0  MISS:          0
cpu0_L1I PREFETCH  ACCESS:          0  HIT:          0  MISS:          0
cpu0_L1I WRITEBACK ACCESS:          0  HIT:          0  MISS:          0
cpu0_L1I TRANSLATION ACCESS:          0  HIT:          0  MISS:          0
cpu0_L1I PREFETCH  REQUESTED:          0  ISSUED:          0  USEFUL:          0  USELESS:          0
cpu0_L1I AVERAGE MISS LATENCY: 12.1074 cycles
cpu0_STLB TOTAL     ACCESS:    1511324  HIT:    1488079  MISS:      23245
cpu0_STLB LOAD      ACCESS:    1053295  HIT:    1037530  MISS:      15765
cpu0_STLB RFO       ACCESS:     458029  HIT:     450549  MISS:       7480
cpu0_STLB PREFETCH  ACCESS:          0  HIT:          0  MISS:          0
cpu0_STLB WRITEBACK ACCESS:          0  HIT:          0  MISS:          0
cpu0_STLB TRANSLATION ACCESS:          0  HIT:          0  MISS:          0
cpu0_STLB PREFETCH  REQUESTED:          0  ISSUED:          0  USEFUL:          0  USELESS:          0
cpu0_STLB AVERAGE MISS LATENCY: 127.235 cycles
cpu0_L1D TOTAL     ACCESS:  224529941  HIT:  221893551  MISS:    2636390
cpu0_L1D LOAD      ACCESS:  119011458  HIT:  117082631  MISS:    1928827
cpu0_L1D RFO       ACCESS:  105496618  HIT:  104791237  MISS:     705381
cpu0_L1D PREFETCH  ACCESS:          0  HIT:          0  MISS:          0
cpu0_L1D WRITEBACK ACCESS:          0  HIT:          0  MISS:          0
cpu0_L1D TRANSLATION ACCESS:      21865  HIT:      19683  MISS:       2182
cpu0_L1D PREFETCH  REQUESTED:          0  ISSUED:          0  USEFUL:          0  USELESS:          0
cpu0_L1D AVERAGE MISS LATENCY: 223.448 cycles
cpu0_L2C TOTAL     ACCESS:    6513847  HIT:    4795687  MISS:    1718160
cpu0_L2C LOAD      ACCESS:    4954828  HIT:    3728478  MISS:    1226350
cpu0_L2C RFO       ACCESS:     700491  HIT:     210875  MISS:     489616
cpu0_L2C PREFETCH  ACCESS:          0  HIT:          0  MISS:          0
cpu0_L2C WRITEBACK ACCESS:     856346  HIT:     854422  MISS:       1924
cpu0_L2C TRANSLATION ACCESS:       2182  HIT:       1912  MISS:        270
cpu0_L2C PREFETCH  REQUESTED:          0  ISSUED:          0  USEFUL:          0  USELESS:          0
cpu0_L2C AVERAGE MISS LATENCY: 327.817 cycles
LLC TOTAL     ACCESS:    2307849  HIT:     859243  MISS:    1448606
LLC LOAD      ACCESS:    1226328  HIT:     266286  MISS:     960042
LLC RFO       ACCESS:     489585  HIT:       3232  MISS:     486353
LLC PREFETCH  ACCESS:          0  HIT:          0  MISS:          0
LLC WRITEBACK ACCESS:     591666  HIT:     589572  MISS:       2094
LLC TRANSLATION ACCESS:        270  HIT:        153  MISS:        117
LLC PREFETCH  REQUESTED:          0  ISSUED:          0  USEFUL:          0  USELESS:          0
LLC AVERAGE MISS LATENCY: 363.937 cycles
~~~~~~~~~~Reuse Distance Profiler output~~~~~~~~~~
0	84470384	14805472
1	46228208	32864592
2	23925824	16121200
3	17333968	12036384
4	11667904	7041440
5	9855952	7341312
6	8121488	6129488
7	16079120	11121200
8	5757936	3938864
9	5020912	3083680
10	3041904	1707872
11	2042448	1061776
12	2382576	1200144
13	1918608	998896
14	3138480	2391568
15	2176800	1452064
16	1723088	821056
17	1196320	747984
18	1519936	1129136
19	1400880	1115808
20	1719936	1249136
21	1449536	1061184
22	1082496	745216
23	1457552	1047520
24	1283360	922256
25	1275600	770816
26	1017056	716704
27	768880	518592
28	689392	397536
29	837136	499584
30	636496	443632
31	516192	319504
32	430704	250032
33	489264	306832
34	567440	385824
35	593776	432864
36	542672	410768
37	510320	433536
38	522656	445008
39	648032	541680
40	517056	395520
41	607888	458064
42	502480	388432
43	416320	358176
44	423584	333920
45	362848	200912
46	329744	198912
47	345968	195920
48	348352	229328
49	382512	259904
50	522608	406352
51	328272	223744
52	291680	186160
53	259808	167312
54	253264	157904
55	245568	160208
56	274864	179136
57	220368	167024
58	293328	240992
59	232672	188080
60	222592	181072
61	199424	155792
62	209632	162080
63	217360	172640
64	396816	313264
66	378288	301408
68	392480	295472
70	391808	272048
72	456944	356416
74	456784	362944
76	459216	388544
78	443808	386064
80	452528	387488
82	485728	424480
84	332000	271872
86	311776	215584
88	257824	174592
90	254848	199136
92	282768	218512
94	295824	260416
96	421600	384496
98	381712	343216
100	462224	402272
102	295360	266752
104	261232	231600
106	187728	168512
108	195472	170672
110	260464	177488
112	287296	191056
114	273424	196624
116	271488	184624
118	208912	163984
120	256496	187232
122	378720	311248
124	358048	325184
126	179648	145104
128	355104	302768
132	243072	211664
136	332880	281088
140	223904	165648
144	340064	299472
148	177936	140128
152	314480	283280
156	257008	219440
160	298160	247632
164	416864	322496
168	334256	204368
172	266048	207600
176	182288	144992
180	199936	159952
184	178256	147104
188	178944	152608
192	192992	174640
196	221376	194352
200	219872	178288
204	227520	178032
208	287200	245344
212	164560	135360
216	163776	137696
220	244032	213344
224	204688	184768
228	187184	165712
232	175632	158160
236	321552	309920
240	240704	228704
244	357872	347744
248	183168	174240
252	710480	703424
256	1170144	1154928
264	410160	385376
272	409008	390752
280	269184	242928
288	219360	186608
296	246368	225344
304	252208	242304
312	199872	183920
320	192800	167600
328	181584	157856
336	163872	145920
344	161712	143872
352	137056	114880
360	125424	113360
368	129040	113008
376	127552	109296
384	116032	106176
392	131632	114320
400	138096	111328
408	124128	104208
416	135104	118592
424	88272	74928
432	95904	82128
440	91376	79536
448	80528	69200
456	102432	85440
464	114128	97440
472	119200	104672
480	95232	82848
488	110800	95568
496	104576	91584
504	120944	100512
512	233488	179856
528	440784	400016
544	281216	234464
560	156192	115232
576	125648	99376
592	149952	122336
608	107680	82432
624	88880	72496
640	130608	112912
656	279392	260368
672	124736	102992
688	109280	84864
704	122608	102880
720	94960	73264
736	124496	103584
752	127232	104432
768	122432	100816
784	121392	104560
800	131328	115808
816	103936	78448
832	76176	55184
848	66272	47664
864	77872	56784
880	65136	48944
896	58064	42160
912	50704	36112
928	57584	42720
944	69264	57744
960	51472	40192
976	46288	34752
992	42912	31760
1008	47040	36384
1024	69888	54752
1056	71440	50144
1088	119472	89552
1120	110112	89920
1152	82544	51248
1184	81968	59488
1216	74752	57936
1248	61376	44848
1280	57856	40224
1312	73904	59328
1344	110720	95024
1376	91392	74192
1408	80512	50128
1440	93520	49248
1472	77360	57616
1504	133040	108704
1536	162960	117344
1568	98224	59776
1600	69776	42288
1632	111856	91232
1664	184352	122656
1696	105072	79280
1728	111824	94992
1760	101664	75520
1792	113232	82240
1824	87536	58320
1856	111536	75856
1888	137312	107920
1920	113056	77008
1952	82192	52320
1984	76864	55968
2016	93200	72416
2048	228224	174432
2112	124672	90528
2176	156448	122672
2240	144352	99488
2304	145776	87440
2368	150080	97408
2432	140416	105328
2496	131776	97952
2560	128000	97952
2624	190560	139216
2688	215264	164768
2752	229584	143920
2816	144112	100336
2880	143600	112976
2944	132240	105600
3008	166128	87328
3072	105504	75552
3136	180144	135872
3200	248576	176704
3264	358064	237280
3328	127808	76976
3392	133904	94560
3456	147248	108016
3520	151696	105744
3584	168464	111888
3648	340976	253824
3712	554768	422752
3776	515792	345488
3840	174704	124432
3904	132720	97136
3968	177248	128416
4032	237280	183424
4096	389216	286032
4224	183536	123200
4352	131472	96160
4480	177312	141360
4608	187088	139424
4736	74736	53600
4864	70992	58624
4992	65440	51984
5120	368512	300496
5248	211376	133200
5376	53856	41856
5504	39136	30880
5632	38896	29712
5760	33600	25312
5888	38816	29600
6016	30096	22912
6144	30624	22768
6272	30480	23760
6400	31520	22064
6528	28960	20512
6656	26144	18592
6784	30912	23184
6912	24464	16656
7040	23408	14720
7168	23088	15424
7296	26064	17088
7424	25136	17152
7552	22704	14000
7680	24880	15632
7808	22784	14592
7936	23680	13888
8064	22576	15264
8192	56192	39984
8448	52464	34912
8704	55872	38992
8960	64128	46192
9216	62032	42512
9472	67200	45776
9728	127968	106144
9984	109232	88688
10240	81136	59152
10496	72208	49360
10752	67792	46656
11008	67408	46384
11264	57520	40880
11520	59552	42592
11776	129248	113312
12032	51552	35824
12288	49472	34192
12544	48688	33328
12800	45280	30032
13056	44848	30768
13312	44784	30432
13568	45872	31104
13824	48064	33424
14080	52560	37664
14336	54128	37696
14592	55280	39584
14848	53552	38416
15104	52448	38096
15360	47600	34816
15616	48128	35424
15872	40160	29680
16128	36464	26992
16384	63264	45440
16896	56064	40032
17408	51600	36240
17920	49264	34928
18432	52928	37888
18944	58176	42384
19456	56752	41712
19968	51856	38272
20480	46928	34736
20992	43488	32096
21504	42224	31408
22016	31936	23952
22528	27568	20064
23040	23936	18272
23552	20320	14736
24064	17968	12912
24576	16576	12576
25088	12416	9216
25600	13344	9856
26112	12736	9744
26624	9792	7232
27136	8080	6208
27648	7120	5264
28160	7456	5856
28672	5280	4080
29184	5168	4144
29696	4144	3088
30208	2992	2448
30720	3136	2224
31232	3296	2480
31744	2656	2096
32256	2528	1920
32768	5040	3968
33792	4352	3200
34816	4400	3728
35840	3968	2832
36864	3808	2880
37888	3584	2800
38912	2992	2368
39936	3776	2816
40960	3408	2688
41984	3392	2496
43008	3824	3024
44032	3488	2560
45056	3664	3056
46080	2640	2192
47104	2704	2208
48128	2000	1504
49152	2384	1824
50176	2464	2080
51200	2256	1824
52224	2352	1968
53248	1888	1536
54272	1824	1440
55296	1552	1232
56320	1584	1200
57344	1520	1264
58368	1504	1248
59392	1696	1344
60416	1824	1488
61440	1776	1488
62464	2400	1920
63488	1808	1440
64512	1648	1216
65536	3104	2384
67584	3040	2544
69632	3088	2544
71680	3232	2656
73728	2944	2560
75776	2896	2288
77824	2208	1728
79872	2560	2208
81920	2608	2128
83968	3200	2720
86016	3248	2672
88064	2576	1856
90112	2768	2368
92160	2912	2416
94208	2496	2272
96256	1936	1664
98304	2544	2160
100352	1936	1504
102400	1888	1520
104448	2224	1840
106496	1440	1264
108544	1552	1312
110592	1808	1616
112640	2096	1824
114688	1984	1760
116736	1552	1248
118784	1760	1424
120832	1872	1600
122880	1920	1632
124928	2080	1472
126976	1328	1152
129024	1760	1312
131072	3408	2944
135168	4256	3792
139264	4144	3776
143360	5696	5216
147456	9632	9184
151552	16320	15872
155648	11456	10720
159744	15824	15200
163840	12352	11856
167936	14752	14192
172032	10592	10080
176128	9632	9232
180224	21296	20832
184320	11472	10432
188416	10384	9536
192512	10224	9168
196608	17184	16240
200704	9424	8336
204800	9184	8864
208896	10544	10064
212992	8368	7696
217088	11216	10656
221184	11856	11200
225280	13040	12000
229376	14928	13312
233472	11872	10736
237568	14592	13760
241664	15920	14928
245760	15664	14864
249856	16320	15680
253952	13312	12656
258048	13856	13040
262144	12032	10624
270336	9504	8320
278528	7472	6560
286720	7040	6176
294912	6752	5904
303104	6624	5872
311296	6352	5728
319488	6064	5632
327680	6544	6176
335872	7168	6688
344064	6960	6304
352256	6864	6304
360448	6496	5824
368640	6352	5696
376832	5968	5472
385024	5584	5216
393216	5216	4816
401408	5392	5056
409600	4912	4384
417792	4784	4352
425984	4000	3520
434176	4784	4096
442368	5376	4416
450560	4784	4048
458752	4640	4064
466944	4480	4000
475136	3984	3440
483328	3600	3104
491520	3440	3008
499712	3760	3216
507904	3792	3296
516096	3616	3296
524288	7760	7008
540672	7248	6528
557056	8176	7376
573440	8544	7776
589824	9568	8816
606208	8256	7680
622592	9184	8432
638976	9520	8832
655360	9408	8800
671744	8640	7856
688128	7984	7536
704512	6464	5872
720896	8352	7760
737280	7424	6800
753664	6720	6208
770048	7456	6880
786432	7264	6560
802816	8688	8288
819200	9040	8704
835584	9568	9200
851968	8992	8848
868352	10128	9728
884736	8992	8688
901120	10576	10160
917504	8560	8304
933888	8976	8704
950272	7696	7424
966656	7296	7088
983040	7680	7280
999424	7776	7568
1015808	5904	5712
1032192	5024	4848
1048576	11120	10768
1081344	10944	10496
1114112	9136	8816
1146880	10800	10464
1179648	9920	9712
1212416	9696	9456
1245184	9072	8912
1277952	8704	8544
1310720	7584	7360
1343488	6448	6240
1376256	5392	5120
1409024	5072	4880
1441792	5136	5056
1474560	4976	4832
1507328	4368	4240
1540096	4800	4640
1572864	5136	4960
1605632	5200	4912
1638400	5056	4704
1671168	6016	5808
1703936	4464	4320
1736704	1408	1296
1769472	1248	1136
1802240	1680	1504
1835008	1904	1744
1867776	3712	3600
1900544	6048	5856
1933312	5504	5360
1966080	5056	4864
1998848	4896	4752
2031616	5088	4864
2064384	5120	4944
2097152	9472	9232
2162688	9024	8672
2228224	2208	1872
2293760	2432	2112
2359296	2336	2080
2424832	2704	2384
2490368	3056	2672
2555904	2928	2560
2621440	2768	2288
2686976	3104	2800
2752512	1920	1616
2818048	2320	2192
2883584	2672	2256
2949120	2032	1744
3014656	2176	1728
3080192	2176	1808
3145728	2208	1824
3211264	2144	1856
3276800	2112	1648
3342336	1696	1296
3407872	656	240
3473408	800	336
3538944	800	432
3604480	864	560
3670016	736	384
3735552	656	320
3801088	848	352
3866624	1184	976
3932160	1632	1392
3997696	1520	1248
4063232	2032	1760
4128768	1760	1344
4194304	3792	2992
4325376	3744	3104
4456448	4000	3136
4587520	2832	2112
4718592	880	304
4849664	1264	432
4980736	976	224
5111808	912	80
5242880	960	272
5373952	1056	192
5505024	912	384
5636096	768	208
5767168	1136	176
5898240	1184	400
6029312	1008	224
6160384	912	208
6291456	672	208
6422528	928	224
6553600	896	144
6684672	880	192
6815744	848	160
6946816	1008	192
7077888	496	80
7208960	640	80
7340032	992	48
7471104	848	96
7602176	736	80
7733248	736	48
7864320	656	32
7995392	576	0
8126464	656	32
8257536	800	80
8388608	752	96
8650752	1520	48
8912896	1152	48
9175040	1184	48
9437184	1408	416
9699328	2240	1024
9961472	2064	768
10223616	1792	608
10485760	2528	848
10747904	2144	768
11010048	1664	640
11272192	2288	976
11534336	2240	864
11796480	1968	720
12058624	2240	912
12320768	3104	1984
12582912	7104	5664
12845056	11360	10544
13107200	2832	1456
13369344	2496	1328
13631488	2304	1312
13893632	2304	1024
14155776	2336	1312
14417920	2544	1424
14680064	2416	1232
14942208	2208	1056
15204352	2224	992
15466496	1904	848
15728640	2032	848
15990784	1504	608
16252928	1264	688
16515072	1312	704
16777216	2800	1344
17301504	3536	2736
17825792	27104	20928
18350080	32992	25408
18874368	45824	25520
19398656	53328	42832
19922944	4016	2960
20447232	3616	2384
20971520	2944	1920
21495808	2864	1744
22020096	2976	1872
22544384	2288	1344
23068672	2576	1856
23592960	3184	1840
24117248	2576	1584
24641536	2976	2160
25165824	3600	2512
25690112	2384	1792
26214400	2912	1568
26738688	3584	2592
27262976	3808	2576
27787264	3552	2512
28311552	3616	2464
28835840	3600	2576
29360128	3568	2368
29884416	3264	2272
30408704	3024	1808
30932992	3104	2016
31457280	2912	2096
31981568	2528	1840
32505856	3024	2736
33030144	44512	41488
33554432	9440	8576
34603008	9552	8976
35651584	9568	8784
36700160	52768	47760
37748736	17232	16160
38797312	14656	13824
39845888	16448	15024
40894464	16672	15552
41943040	11152	10176
42991616	10768	9824
44040192	14272	13008
45088768	12368	11776
46137344	12016	11664
47185920	11392	10960
48234496	11088	10752
49283072	47712	44112
50331648	6256	6160
51380224	5744	5504
52428800	5696	5360
53477376	7040	6656
54525952	3008	2976
55574528	336	336
56623104	192	192
57671680	448	448
58720256	304	304
59768832	352	352
60817408	352	352
61865984	336	336
62914560	288	288
63963136	224	224
65011712	432	208
66060288	64	48
67108864	96	80
69206016	1136	1120
71303168	2080	2048
73400320	2416	2400
75497472	2368	2352
77594624	2464	2432
79691776	2224	2176
81788928	1072	1072
83886080	1456	1440
85983232	1904	1872
88080384	1664	1664
90177536	1920	1920
92274688	1920	1920
94371840	1968	1968
96468992	11872	1904
98566144	10368	1184
100663296	4784	992
102760448	6048	848
104857600	39648	36384
106954752	96	16
109051904	0	0
111149056	0	0
113246208	64	48
115343360	0	0
117440512	64	0
119537664	0	0
121634816	16	16
123731968	0	0
125829120	16	16
127926272	96	96
130023424	6848	6848
132120576	6304	6304
134217728	2240	1648
138412032	9952	7680
142606336	30256	24112
146800640	11168	5696
150994944	32	32
155189248	3216	48
159383552	9200	32
163577856	3568	0
167772160	3600	0
171966464	2480	16
176160768	224	128
180355072	80	16
184549376	112	64
188743680	1872	1680
192937984	9328	7088
197132288	5344	2512
201326592	3600	864
205520896	3600	976
209715200	3200	320
213909504	1056	0
218103808	2432	80
222298112	784	144
226492416	80	32
230686720	64	48
234881024	16	0
239075328	16	0
243269632	0	0
247463936	0	0
251658240	0	0
255852544	0	0
260046848	0	0
264241152	0	0
268435456	0	0
276824064	0	0
285212672	0	0
293601280	0	0
301989888	0	0
310378496	0	0
318767104	0	0
327155712	0	0
335544320	0	0
343932928	0	0
352321536	0	0
360710144	0	0
369098752	0	0
377487360	0	0
385875968	0	0
394264576	0	0
402653184	0	0
411041792	0	0
419430400	0	0
427819008	0	0
436207616	0	0
444596224	0	0
452984832	0	0
461373440	0	0
469762048	0	0
478150656	0	0
486539264	0	0
494927872	0	0
503316480	0	0
511705088	0	0
520093696	0	0
528482304	0	0
536870912	0	0
553648128	0	0
570425344	0	0
587202560	0	0
603979776	0	0
620756992	0	0
637534208	0	0
654311424	0	0
671088640	0	0
687865856	0	0
704643072	0	0
721420288	0	0
738197504	0	0
754974720	0	0
771751936	0	0
788529152	0	0
805306368	0	0
822083584	0	0
838860800	0	0
855638016	0	0
872415232	0	0
889192448	0	0
905969664	0	0
922746880	0	0
939524096	0	0
956301312	0	0
973078528	0	0
989855744	0	0
1006632960	0	0
1023410176	0	0
1040187392	0	0
1056964608	0	0
1073741824	0	0
1107296256	0	0
1140850688	0	0
1174405120	0	0
1207959552	0	0
1241513984	0	0
1275068416	0	0
1308622848	0	0
1342177280	0	0
1375731712	0	0
1409286144	0	0
1442840576	0	0
1476395008	0	0
1509949440	0	0
1543503872	0	0
1577058304	0	0
1610612736	0	0
1644167168	0	0
1677721600	0	0
1711276032	0	0
1744830464	0	0
1778384896	0	0
1811939328	0	0
1845493760	0	0
1879048192	0	0
1912602624	0	0
1946157056	0	0
1979711488	0	0
2013265920	0	0
2046820352	0	0
2080374784	0	0
2113929216	0	0
2147483648	0	0
2214592512	0	0
2281701376	0	0
2348810240	0	0
2415919104	0	0
2483027968	0	0
2550136832	0	0
2617245696	0	0
2684354560	0	0
2751463424	0	0
2818572288	0	0
2885681152	0	0
2952790016	0	0
3019898880	0	0
3087007744	0	0
3154116608	0	0
3221225472	0	0
3288334336	0	0
3355443200	0	0
3422552064	0	0
3489660928	0	0
3556769792	0	0
3623878656	0	0
3690987520	0	0
3758096384	0	0
3825205248	0	0
3892314112	0	0
3959422976	0	0
4026531840	0	0
4093640704	0	0
4160749568	0	0
4227858432	0	0
~~~~~~~~~~Reuse Distance Profiler output end~~~~~~~~~~

DRAM Statistics
 CHANNEL 0
 RQ ROW_BUFFER_HIT:      87277  ROW_BUFFER_MISS:    1358975
 DBUS AVG_CONGESTED_CYCLE:    3.94939
 WQ ROW_BUFFER_HIT:      87229  ROW_BUFFER_MISS:     502091  FULL:          0


CPU 0 Branch Prediction Accuracy: 84.4922% MPKI: 6.19806 Average ROB Occupancy at Mispredict: 85.4187
Branch type MPKI
BRANCH_DIRECT_JUMP: 2.8e-05
BRANCH_INDIRECT: 0.000836667
BRANCH_CONDITIONAL: 6.10429
BRANCH_DIRECT_CALL: 3.73333e-05
BRANCH_INDIRECT_CALL: 0.020256
BRANCH_RETURN: 0.072614

