
*** ChampSim Multicore Out-of-Order Simulator ***

Warmup Instructions: 500000000
Simulation Instructions: 1500000000
Number of CPUs: 1
Off-chip DRAM Size: 4 GiB Channels: 1 Width: 64-bit Data Rate: 3200 MT/s

VirtualMemory physical capacity: 8588881920 num_ppages: 2096895
VirtualMemory page size: 4096 log2_page_size: 12

CPU 0 runs traces/625.x264_s-33B.champsimtrace.xz
CPU 0 Bimodal branch predictor
Basic BTB sets: 1024 ways: 8 indirect buffer size: 4096 RAS size: 64
Initializing LRU.
Initializing LRU.
Initializing LRU.
Initializing LRU.
Initializing rdLRU.
Initializing LRU.
Initializing LRU.
Heartbeat CPU 0 instructions: 10000000 cycles: 2500089 heartbeat IPC: 3.99986 cumulative IPC: 3.99986 (Simulation time: 0 hr 0 min 34 sec) 
Heartbeat CPU 0 instructions: 20000000 cycles: 5000089 heartbeat IPC: 4 cumulative IPC: 3.99993 (Simulation time: 0 hr 1 min 25 sec) 
Heartbeat CPU 0 instructions: 30000000 cycles: 7500089 heartbeat IPC: 4 cumulative IPC: 3.99995 (Simulation time: 0 hr 2 min 11 sec) 
Heartbeat CPU 0 instructions: 40000000 cycles: 10000089 heartbeat IPC: 4 cumulative IPC: 3.99996 (Simulation time: 0 hr 3 min 5 sec) 
Heartbeat CPU 0 instructions: 50000000 cycles: 12500089 heartbeat IPC: 4 cumulative IPC: 3.99997 (Simulation time: 0 hr 3 min 59 sec) 
Heartbeat CPU 0 instructions: 60000000 cycles: 15000089 heartbeat IPC: 4 cumulative IPC: 3.99998 (Simulation time: 0 hr 4 min 46 sec) 
Heartbeat CPU 0 instructions: 70000000 cycles: 17500089 heartbeat IPC: 4 cumulative IPC: 3.99998 (Simulation time: 0 hr 5 min 19 sec) 
Heartbeat CPU 0 instructions: 80000000 cycles: 20000089 heartbeat IPC: 4 cumulative IPC: 3.99998 (Simulation time: 0 hr 6 min 3 sec) 
Heartbeat CPU 0 instructions: 90000000 cycles: 22500089 heartbeat IPC: 4 cumulative IPC: 3.99998 (Simulation time: 0 hr 6 min 55 sec) 
Heartbeat CPU 0 instructions: 100000000 cycles: 25000089 heartbeat IPC: 4 cumulative IPC: 3.99999 (Simulation time: 0 hr 7 min 45 sec) 
Heartbeat CPU 0 instructions: 110000000 cycles: 27500089 heartbeat IPC: 4 cumulative IPC: 3.99999 (Simulation time: 0 hr 8 min 32 sec) 
Heartbeat CPU 0 instructions: 120000000 cycles: 30000848 heartbeat IPC: 3.99879 cumulative IPC: 3.99989 (Simulation time: 0 hr 9 min 17 sec) 
Heartbeat CPU 0 instructions: 130000000 cycles: 32500848 heartbeat IPC: 4 cumulative IPC: 3.9999 (Simulation time: 0 hr 9 min 56 sec) 
Heartbeat CPU 0 instructions: 140000000 cycles: 35000848 heartbeat IPC: 4 cumulative IPC: 3.9999 (Simulation time: 0 hr 10 min 42 sec) 
Heartbeat CPU 0 instructions: 150000000 cycles: 37500848 heartbeat IPC: 4 cumulative IPC: 3.99991 (Simulation time: 0 hr 11 min 23 sec) 
Heartbeat CPU 0 instructions: 160000000 cycles: 40000848 heartbeat IPC: 4 cumulative IPC: 3.99992 (Simulation time: 0 hr 11 min 55 sec) 
Heartbeat CPU 0 instructions: 170000000 cycles: 42501264 heartbeat IPC: 3.99933 cumulative IPC: 3.99988 (Simulation time: 0 hr 12 min 28 sec) 
Heartbeat CPU 0 instructions: 180000000 cycles: 45001264 heartbeat IPC: 4 cumulative IPC: 3.99989 (Simulation time: 0 hr 13 min 11 sec) 
Heartbeat CPU 0 instructions: 190000000 cycles: 47501264 heartbeat IPC: 4 cumulative IPC: 3.99989 (Simulation time: 0 hr 13 min 52 sec) 
Heartbeat CPU 0 instructions: 200000000 cycles: 50001264 heartbeat IPC: 4 cumulative IPC: 3.9999 (Simulation time: 0 hr 14 min 24 sec) 
Heartbeat CPU 0 instructions: 210000000 cycles: 52501264 heartbeat IPC: 4 cumulative IPC: 3.9999 (Simulation time: 0 hr 15 min 7 sec) 
Heartbeat CPU 0 instructions: 220000000 cycles: 55001264 heartbeat IPC: 4 cumulative IPC: 3.99991 (Simulation time: 0 hr 16 min 0 sec) 
Heartbeat CPU 0 instructions: 230000000 cycles: 57501264 heartbeat IPC: 4 cumulative IPC: 3.99991 (Simulation time: 0 hr 16 min 38 sec) 
Heartbeat CPU 0 instructions: 240000001 cycles: 60001435 heartbeat IPC: 3.99973 cumulative IPC: 3.9999 (Simulation time: 0 hr 17 min 33 sec) 
Heartbeat CPU 0 instructions: 250000001 cycles: 62501435 heartbeat IPC: 4 cumulative IPC: 3.99991 (Simulation time: 0 hr 18 min 28 sec) 
Heartbeat CPU 0 instructions: 260000001 cycles: 65001435 heartbeat IPC: 4 cumulative IPC: 3.99991 (Simulation time: 0 hr 19 min 24 sec) 
Heartbeat CPU 0 instructions: 270000001 cycles: 67501435 heartbeat IPC: 4 cumulative IPC: 3.99991 (Simulation time: 0 hr 20 min 19 sec) 
Heartbeat CPU 0 instructions: 280000001 cycles: 70001435 heartbeat IPC: 4 cumulative IPC: 3.99992 (Simulation time: 0 hr 21 min 13 sec) 
Heartbeat CPU 0 instructions: 290000001 cycles: 72501435 heartbeat IPC: 4 cumulative IPC: 3.99992 (Simulation time: 0 hr 22 min 5 sec) 
Heartbeat CPU 0 instructions: 300000001 cycles: 75001435 heartbeat IPC: 4 cumulative IPC: 3.99992 (Simulation time: 0 hr 22 min 36 sec) 
Heartbeat CPU 0 instructions: 310000001 cycles: 77501435 heartbeat IPC: 4 cumulative IPC: 3.99993 (Simulation time: 0 hr 23 min 11 sec) 
Heartbeat CPU 0 instructions: 320000001 cycles: 80001435 heartbeat IPC: 4 cumulative IPC: 3.99993 (Simulation time: 0 hr 23 min 56 sec) 
Heartbeat CPU 0 instructions: 330000001 cycles: 82501435 heartbeat IPC: 4 cumulative IPC: 3.99993 (Simulation time: 0 hr 24 min 36 sec) 
Heartbeat CPU 0 instructions: 340000001 cycles: 85001435 heartbeat IPC: 4 cumulative IPC: 3.99993 (Simulation time: 0 hr 25 min 9 sec) 
Heartbeat CPU 0 instructions: 350000001 cycles: 87501435 heartbeat IPC: 4 cumulative IPC: 3.99993 (Simulation time: 0 hr 25 min 52 sec) 
Heartbeat CPU 0 instructions: 360000000 cycles: 90001446 heartbeat IPC: 3.99998 cumulative IPC: 3.99994 (Simulation time: 0 hr 26 min 29 sec) 
Heartbeat CPU 0 instructions: 370000003 cycles: 92514086 heartbeat IPC: 3.97988 cumulative IPC: 3.99939 (Simulation time: 0 hr 27 min 4 sec) 
Heartbeat CPU 0 instructions: 380000002 cycles: 95058393 heartbeat IPC: 3.93034 cumulative IPC: 3.99754 (Simulation time: 0 hr 27 min 40 sec) 
Heartbeat CPU 0 instructions: 390000004 cycles: 97570734 heartbeat IPC: 3.98035 cumulative IPC: 3.9971 (Simulation time: 0 hr 28 min 27 sec) 
Heartbeat CPU 0 instructions: 400000003 cycles: 100085482 heartbeat IPC: 3.97654 cumulative IPC: 3.99658 (Simulation time: 0 hr 29 min 20 sec) 
Heartbeat CPU 0 instructions: 410000002 cycles: 102610052 heartbeat IPC: 3.96107 cumulative IPC: 3.99571 (Simulation time: 0 hr 30 min 14 sec) 
Heartbeat CPU 0 instructions: 420000003 cycles: 105128104 heartbeat IPC: 3.97132 cumulative IPC: 3.99513 (Simulation time: 0 hr 31 min 7 sec) 
Heartbeat CPU 0 instructions: 430000000 cycles: 107648823 heartbeat IPC: 3.96712 cumulative IPC: 3.99447 (Simulation time: 0 hr 31 min 59 sec) 
Heartbeat CPU 0 instructions: 440000002 cycles: 110168511 heartbeat IPC: 3.96875 cumulative IPC: 3.99388 (Simulation time: 0 hr 32 min 39 sec) 
Heartbeat CPU 0 instructions: 450000003 cycles: 112683272 heartbeat IPC: 3.97652 cumulative IPC: 3.99349 (Simulation time: 0 hr 33 min 32 sec) 
Heartbeat CPU 0 instructions: 460000002 cycles: 115197662 heartbeat IPC: 3.97711 cumulative IPC: 3.99314 (Simulation time: 0 hr 34 min 7 sec) 
Heartbeat CPU 0 instructions: 470000001 cycles: 117711477 heartbeat IPC: 3.97802 cumulative IPC: 3.99281 (Simulation time: 0 hr 34 min 44 sec) 
Heartbeat CPU 0 instructions: 480000003 cycles: 120224521 heartbeat IPC: 3.97924 cumulative IPC: 3.99253 (Simulation time: 0 hr 35 min 35 sec) 
Heartbeat CPU 0 instructions: 490000003 cycles: 122741571 heartbeat IPC: 3.9729 cumulative IPC: 3.99213 (Simulation time: 0 hr 36 min 15 sec) 
Heartbeat CPU 0 instructions: 500000001 cycles: 125258699 heartbeat IPC: 3.97278 cumulative IPC: 3.99174 (Simulation time: 0 hr 36 min 47 sec) 

Warmup complete CPU 0 instructions: 500000001 cycles: 125258699 (Simulation time: 0 hr 36 min 47 sec) 

Heartbeat CPU 0 instructions: 510000001 cycles: 129107810 heartbeat IPC: 2.598 cumulative IPC: 2.598 (Simulation time: 0 hr 37 min 27 sec) 
Heartbeat CPU 0 instructions: 520000002 cycles: 132999432 heartbeat IPC: 2.56962 cumulative IPC: 2.58373 (Simulation time: 0 hr 38 min 2 sec) 
Heartbeat CPU 0 instructions: 530000001 cycles: 136904838 heartbeat IPC: 2.56055 cumulative IPC: 2.57596 (Simulation time: 0 hr 38 min 47 sec) 
Heartbeat CPU 0 instructions: 540000001 cycles: 140686640 heartbeat IPC: 2.64424 cumulative IPC: 2.5927 (Simulation time: 0 hr 39 min 21 sec) 
Heartbeat CPU 0 instructions: 550000001 cycles: 144532416 heartbeat IPC: 2.60026 cumulative IPC: 2.59421 (Simulation time: 0 hr 39 min 53 sec) 
Heartbeat CPU 0 instructions: 560000001 cycles: 156758582 heartbeat IPC: 0.817918 cumulative IPC: 1.90477 (Simulation time: 0 hr 41 min 47 sec) 
Heartbeat CPU 0 instructions: 570000003 cycles: 160823822 heartbeat IPC: 2.45988 cumulative IPC: 1.96822 (Simulation time: 0 hr 43 min 49 sec) 
Heartbeat CPU 0 instructions: 580000004 cycles: 165618040 heartbeat IPC: 2.08585 cumulative IPC: 1.98219 (Simulation time: 0 hr 44 min 50 sec) 
Heartbeat CPU 0 instructions: 590000001 cycles: 169289947 heartbeat IPC: 2.72338 cumulative IPC: 2.044 (Simulation time: 0 hr 45 min 49 sec) 
Heartbeat CPU 0 instructions: 600000004 cycles: 173063493 heartbeat IPC: 2.65003 cumulative IPC: 2.09184 (Simulation time: 0 hr 46 min 49 sec) 
Heartbeat CPU 0 instructions: 610000003 cycles: 176918484 heartbeat IPC: 2.59404 cumulative IPC: 2.12932 (Simulation time: 0 hr 47 min 49 sec) 
Heartbeat CPU 0 instructions: 620000003 cycles: 180678005 heartbeat IPC: 2.65991 cumulative IPC: 2.16531 (Simulation time: 0 hr 48 min 44 sec) 
Heartbeat CPU 0 instructions: 630000000 cycles: 184488004 heartbeat IPC: 2.62467 cumulative IPC: 2.19486 (Simulation time: 0 hr 49 min 33 sec) 
Heartbeat CPU 0 instructions: 640000001 cycles: 188228308 heartbeat IPC: 2.67358 cumulative IPC: 2.22329 (Simulation time: 0 hr 50 min 33 sec) 
Heartbeat CPU 0 instructions: 650000002 cycles: 192009442 heartbeat IPC: 2.64471 cumulative IPC: 2.24717 (Simulation time: 0 hr 51 min 34 sec) 
Heartbeat CPU 0 instructions: 660000001 cycles: 195841686 heartbeat IPC: 2.60944 cumulative IPC: 2.26684 (Simulation time: 0 hr 52 min 35 sec) 
Heartbeat CPU 0 instructions: 670000003 cycles: 199644557 heartbeat IPC: 2.62959 cumulative IPC: 2.28538 (Simulation time: 0 hr 53 min 35 sec) 
Heartbeat CPU 0 instructions: 680000004 cycles: 203307487 heartbeat IPC: 2.73006 cumulative IPC: 2.30625 (Simulation time: 0 hr 54 min 17 sec) 
Heartbeat CPU 0 instructions: 690000002 cycles: 207080719 heartbeat IPC: 2.65025 cumulative IPC: 2.32211 (Simulation time: 0 hr 54 min 52 sec) 
Heartbeat CPU 0 instructions: 700000002 cycles: 210861402 heartbeat IPC: 2.64502 cumulative IPC: 2.33637 (Simulation time: 0 hr 55 min 26 sec) 
Heartbeat CPU 0 instructions: 710000000 cycles: 214644201 heartbeat IPC: 2.64354 cumulative IPC: 2.34937 (Simulation time: 0 hr 56 min 1 sec) 
Heartbeat CPU 0 instructions: 720000000 cycles: 224792650 heartbeat IPC: 0.985372 cumulative IPC: 2.2103 (Simulation time: 0 hr 58 min 11 sec) 
Heartbeat CPU 0 instructions: 730000003 cycles: 230698914 heartbeat IPC: 1.69312 cumulative IPC: 2.18133 (Simulation time: 0 hr 59 min 26 sec) 
Heartbeat CPU 0 instructions: 740000002 cycles: 235295353 heartbeat IPC: 2.1756 cumulative IPC: 2.18109 (Simulation time: 1 hr 0 min 20 sec) 
Heartbeat CPU 0 instructions: 750000003 cycles: 239729801 heartbeat IPC: 2.25507 cumulative IPC: 2.18396 (Simulation time: 1 hr 0 min 59 sec) 
Heartbeat CPU 0 instructions: 760000003 cycles: 243926141 heartbeat IPC: 2.38303 cumulative IPC: 2.191 (Simulation time: 1 hr 1 min 38 sec) 
Heartbeat CPU 0 instructions: 770000000 cycles: 248116779 heartbeat IPC: 2.38627 cumulative IPC: 2.19766 (Simulation time: 1 hr 2 min 23 sec) 
Heartbeat CPU 0 instructions: 780000003 cycles: 252325589 heartbeat IPC: 2.37597 cumulative IPC: 2.20356 (Simulation time: 1 hr 3 min 24 sec) 
Heartbeat CPU 0 instructions: 790000004 cycles: 256518915 heartbeat IPC: 2.38474 cumulative IPC: 2.20935 (Simulation time: 1 hr 4 min 32 sec) 
Heartbeat CPU 0 instructions: 800000004 cycles: 260712219 heartbeat IPC: 2.38475 cumulative IPC: 2.21478 (Simulation time: 1 hr 5 min 41 sec) 
Heartbeat CPU 0 instructions: 810000003 cycles: 264904438 heartbeat IPC: 2.38537 cumulative IPC: 2.2199 (Simulation time: 1 hr 6 min 20 sec) 
Heartbeat CPU 0 instructions: 820000000 cycles: 276716260 heartbeat IPC: 0.846609 cumulative IPC: 2.1128 (Simulation time: 1 hr 7 min 42 sec) 
Heartbeat CPU 0 instructions: 830000000 cycles: 280604830 heartbeat IPC: 2.57164 cumulative IPC: 2.12429 (Simulation time: 1 hr 9 min 16 sec) 
Heartbeat CPU 0 instructions: 840000001 cycles: 285473023 heartbeat IPC: 2.05415 cumulative IPC: 2.12216 (Simulation time: 1 hr 10 min 25 sec) 
Heartbeat CPU 0 instructions: 850000000 cycles: 289682377 heartbeat IPC: 2.37566 cumulative IPC: 2.12865 (Simulation time: 1 hr 11 min 9 sec) 
Heartbeat CPU 0 instructions: 860000003 cycles: 293898819 heartbeat IPC: 2.37167 cumulative IPC: 2.13472 (Simulation time: 1 hr 11 min 47 sec) 
Heartbeat CPU 0 instructions: 870000003 cycles: 298091851 heartbeat IPC: 2.38491 cumulative IPC: 2.14079 (Simulation time: 1 hr 12 min 24 sec) 
Heartbeat CPU 0 instructions: 880000004 cycles: 302290039 heartbeat IPC: 2.38198 cumulative IPC: 2.14651 (Simulation time: 1 hr 13 min 1 sec) 
Heartbeat CPU 0 instructions: 890000002 cycles: 306485082 heartbeat IPC: 2.38377 cumulative IPC: 2.152 (Simulation time: 1 hr 13 min 39 sec) 
Heartbeat CPU 0 instructions: 900000001 cycles: 310678473 heartbeat IPC: 2.3847 cumulative IPC: 2.15727 (Simulation time: 1 hr 14 min 17 sec) 
Heartbeat CPU 0 instructions: 910000001 cycles: 314873170 heartbeat IPC: 2.38396 cumulative IPC: 2.16228 (Simulation time: 1 hr 14 min 54 sec) 
Heartbeat CPU 0 instructions: 920000004 cycles: 326901491 heartbeat IPC: 0.831371 cumulative IPC: 2.08289 (Simulation time: 1 hr 16 min 11 sec) 
Heartbeat CPU 0 instructions: 930000001 cycles: 330732939 heartbeat IPC: 2.60998 cumulative IPC: 2.09272 (Simulation time: 1 hr 17 min 19 sec) 
Heartbeat CPU 0 instructions: 940000001 cycles: 335280701 heartbeat IPC: 2.19888 cumulative IPC: 2.09502 (Simulation time: 1 hr 17 min 54 sec) 
Heartbeat CPU 0 instructions: 950000001 cycles: 339090860 heartbeat IPC: 2.62456 cumulative IPC: 2.10445 (Simulation time: 1 hr 18 min 33 sec) 
Heartbeat CPU 0 instructions: 960000003 cycles: 342930272 heartbeat IPC: 2.60457 cumulative IPC: 2.11328 (Simulation time: 1 hr 19 min 14 sec) 
Heartbeat CPU 0 instructions: 970000002 cycles: 346785138 heartbeat IPC: 2.59412 cumulative IPC: 2.12164 (Simulation time: 1 hr 19 min 47 sec) 
Heartbeat CPU 0 instructions: 980000004 cycles: 350614616 heartbeat IPC: 2.61132 cumulative IPC: 2.12996 (Simulation time: 1 hr 20 min 21 sec) 
Heartbeat CPU 0 instructions: 990000003 cycles: 354449497 heartbeat IPC: 2.60764 cumulative IPC: 2.13796 (Simulation time: 1 hr 21 min 4 sec) 
Heartbeat CPU 0 instructions: 1000000004 cycles: 358295765 heartbeat IPC: 2.59992 cumulative IPC: 2.14558 (Simulation time: 1 hr 21 min 42 sec) 
Heartbeat CPU 0 instructions: 1010000000 cycles: 362129946 heartbeat IPC: 2.60812 cumulative IPC: 2.15307 (Simulation time: 1 hr 22 min 30 sec) 
Heartbeat CPU 0 instructions: 1020000003 cycles: 365940802 heartbeat IPC: 2.62408 cumulative IPC: 2.16053 (Simulation time: 1 hr 23 min 22 sec) 
Heartbeat CPU 0 instructions: 1030000004 cycles: 369720102 heartbeat IPC: 2.64599 cumulative IPC: 2.16803 (Simulation time: 1 hr 24 min 3 sec) 
Heartbeat CPU 0 instructions: 1040000001 cycles: 373465407 heartbeat IPC: 2.67001 cumulative IPC: 2.17561 (Simulation time: 1 hr 24 min 32 sec) 
Heartbeat CPU 0 instructions: 1050000000 cycles: 377230079 heartbeat IPC: 2.65627 cumulative IPC: 2.18279 (Simulation time: 1 hr 25 min 1 sec) 
Heartbeat CPU 0 instructions: 1060000001 cycles: 381023478 heartbeat IPC: 2.63616 cumulative IPC: 2.18951 (Simulation time: 1 hr 25 min 29 sec) 
Heartbeat CPU 0 instructions: 1070000000 cycles: 384841977 heartbeat IPC: 2.61883 cumulative IPC: 2.19583 (Simulation time: 1 hr 25 min 58 sec) 
Heartbeat CPU 0 instructions: 1080000004 cycles: 388630125 heartbeat IPC: 2.63981 cumulative IPC: 2.20221 (Simulation time: 1 hr 26 min 26 sec) 
Heartbeat CPU 0 instructions: 1090000003 cycles: 392414485 heartbeat IPC: 2.64245 cumulative IPC: 2.20845 (Simulation time: 1 hr 26 min 55 sec) 
Heartbeat CPU 0 instructions: 1100000004 cycles: 396205048 heartbeat IPC: 2.63813 cumulative IPC: 2.21446 (Simulation time: 1 hr 27 min 23 sec) 
Heartbeat CPU 0 instructions: 1110000000 cycles: 399973508 heartbeat IPC: 2.6536 cumulative IPC: 2.22048 (Simulation time: 1 hr 27 min 52 sec) 
Heartbeat CPU 0 instructions: 1120000002 cycles: 403718216 heartbeat IPC: 2.67044 cumulative IPC: 2.22654 (Simulation time: 1 hr 28 min 21 sec) 
Heartbeat CPU 0 instructions: 1130000001 cycles: 407507031 heartbeat IPC: 2.63935 cumulative IPC: 2.23208 (Simulation time: 1 hr 28 min 49 sec) 
Heartbeat CPU 0 instructions: 1140000000 cycles: 411329451 heartbeat IPC: 2.61614 cumulative IPC: 2.23721 (Simulation time: 1 hr 29 min 17 sec) 
Heartbeat CPU 0 instructions: 1150000001 cycles: 415165411 heartbeat IPC: 2.60691 cumulative IPC: 2.2421 (Simulation time: 1 hr 29 min 45 sec) 
Heartbeat CPU 0 instructions: 1160000000 cycles: 419035995 heartbeat IPC: 2.58359 cumulative IPC: 2.2466 (Simulation time: 1 hr 30 min 26 sec) 
Heartbeat CPU 0 instructions: 1170000002 cycles: 422920074 heartbeat IPC: 2.57461 cumulative IPC: 2.25088 (Simulation time: 1 hr 31 min 14 sec) 
Heartbeat CPU 0 instructions: 1180000001 cycles: 426819273 heartbeat IPC: 2.56463 cumulative IPC: 2.25494 (Simulation time: 1 hr 32 min 5 sec) 
Heartbeat CPU 0 instructions: 1190000004 cycles: 430713250 heartbeat IPC: 2.56807 cumulative IPC: 2.25893 (Simulation time: 1 hr 32 min 51 sec) 
Heartbeat CPU 0 instructions: 1200000001 cycles: 434590404 heartbeat IPC: 2.57921 cumulative IPC: 2.26294 (Simulation time: 1 hr 33 min 20 sec) 
Heartbeat CPU 0 instructions: 1210000001 cycles: 438465657 heartbeat IPC: 2.58048 cumulative IPC: 2.26687 (Simulation time: 1 hr 33 min 49 sec) 
Heartbeat CPU 0 instructions: 1220000001 cycles: 442340755 heartbeat IPC: 2.58058 cumulative IPC: 2.27071 (Simulation time: 1 hr 34 min 17 sec) 
Heartbeat CPU 0 instructions: 1230000003 cycles: 446221140 heartbeat IPC: 2.57706 cumulative IPC: 2.27441 (Simulation time: 1 hr 34 min 46 sec) 
Heartbeat CPU 0 instructions: 1240000003 cycles: 450086141 heartbeat IPC: 2.58732 cumulative IPC: 2.27813 (Simulation time: 1 hr 35 min 14 sec) 
Heartbeat CPU 0 instructions: 1250000000 cycles: 453963624 heartbeat IPC: 2.57899 cumulative IPC: 2.28168 (Simulation time: 1 hr 35 min 42 sec) 
Heartbeat CPU 0 instructions: 1260000003 cycles: 457808195 heartbeat IPC: 2.60107 cumulative IPC: 2.28537 (Simulation time: 1 hr 36 min 10 sec) 
Heartbeat CPU 0 instructions: 1270000001 cycles: 461649209 heartbeat IPC: 2.60348 cumulative IPC: 2.28901 (Simulation time: 1 hr 36 min 39 sec) 
Heartbeat CPU 0 instructions: 1280000000 cycles: 465085382 heartbeat IPC: 2.91021 cumulative IPC: 2.29529 (Simulation time: 1 hr 37 min 8 sec) 
Heartbeat CPU 0 instructions: 1290000003 cycles: 468343725 heartbeat IPC: 3.06905 cumulative IPC: 2.30264 (Simulation time: 1 hr 37 min 37 sec) 
Heartbeat CPU 0 instructions: 1300000004 cycles: 471592428 heartbeat IPC: 3.07815 cumulative IPC: 2.30991 (Simulation time: 1 hr 38 min 6 sec) 
Heartbeat CPU 0 instructions: 1310000002 cycles: 474839449 heartbeat IPC: 3.07975 cumulative IPC: 2.31706 (Simulation time: 1 hr 38 min 35 sec) 
Heartbeat CPU 0 instructions: 1320000000 cycles: 478785042 heartbeat IPC: 2.53447 cumulative IPC: 2.31949 (Simulation time: 1 hr 39 min 4 sec) 
Heartbeat CPU 0 instructions: 1330000001 cycles: 482794193 heartbeat IPC: 2.49429 cumulative IPC: 2.32145 (Simulation time: 1 hr 39 min 33 sec) 
Heartbeat CPU 0 instructions: 1340000003 cycles: 486820435 heartbeat IPC: 2.48371 cumulative IPC: 2.32325 (Simulation time: 1 hr 40 min 1 sec) 
Heartbeat CPU 0 instructions: 1350000003 cycles: 490836987 heartbeat IPC: 2.4897 cumulative IPC: 2.32508 (Simulation time: 1 hr 40 min 30 sec) 
Heartbeat CPU 0 instructions: 1360000004 cycles: 494850318 heartbeat IPC: 2.4917 cumulative IPC: 2.32689 (Simulation time: 1 hr 41 min 2 sec) 
Heartbeat CPU 0 instructions: 1370000004 cycles: 498652203 heartbeat IPC: 2.63027 cumulative IPC: 2.32998 (Simulation time: 1 hr 41 min 47 sec) 
Heartbeat CPU 0 instructions: 1380000000 cycles: 502474261 heartbeat IPC: 2.61639 cumulative IPC: 2.33288 (Simulation time: 1 hr 42 min 39 sec) 
Heartbeat CPU 0 instructions: 1390000003 cycles: 506317797 heartbeat IPC: 2.60177 cumulative IPC: 2.3356 (Simulation time: 1 hr 43 min 28 sec) 
Heartbeat CPU 0 instructions: 1400000000 cycles: 510156384 heartbeat IPC: 2.60512 cumulative IPC: 2.33828 (Simulation time: 1 hr 44 min 3 sec) 
Heartbeat CPU 0 instructions: 1410000000 cycles: 513987077 heartbeat IPC: 2.61049 cumulative IPC: 2.34097 (Simulation time: 1 hr 44 min 47 sec) 
Heartbeat CPU 0 instructions: 1420000001 cycles: 517821610 heartbeat IPC: 2.60788 cumulative IPC: 2.34357 (Simulation time: 1 hr 45 min 21 sec) 
Heartbeat CPU 0 instructions: 1430000002 cycles: 521663990 heartbeat IPC: 2.60255 cumulative IPC: 2.34608 (Simulation time: 1 hr 46 min 7 sec) 
Heartbeat CPU 0 instructions: 1440000000 cycles: 525474439 heartbeat IPC: 2.62436 cumulative IPC: 2.34873 (Simulation time: 1 hr 46 min 58 sec) 
Heartbeat CPU 0 instructions: 1450000001 cycles: 529247204 heartbeat IPC: 2.65058 cumulative IPC: 2.35155 (Simulation time: 1 hr 47 min 36 sec) 
Heartbeat CPU 0 instructions: 1460000003 cycles: 533240210 heartbeat IPC: 2.50438 cumulative IPC: 2.35305 (Simulation time: 1 hr 48 min 10 sec) 
Heartbeat CPU 0 instructions: 1470000004 cycles: 537276351 heartbeat IPC: 2.47761 cumulative IPC: 2.35427 (Simulation time: 1 hr 48 min 40 sec) 
Heartbeat CPU 0 instructions: 1480000000 cycles: 541313745 heartbeat IPC: 2.47684 cumulative IPC: 2.35546 (Simulation time: 1 hr 49 min 10 sec) 
Heartbeat CPU 0 instructions: 1490000002 cycles: 545351431 heartbeat IPC: 2.47667 cumulative IPC: 2.35662 (Simulation time: 1 hr 49 min 39 sec) 
Heartbeat CPU 0 instructions: 1500000001 cycles: 549385054 heartbeat IPC: 2.47916 cumulative IPC: 2.35779 (Simulation time: 1 hr 50 min 9 sec) 
Heartbeat CPU 0 instructions: 1510000002 cycles: 553478642 heartbeat IPC: 2.44285 cumulative IPC: 2.3586 (Simulation time: 1 hr 50 min 39 sec) 
Heartbeat CPU 0 instructions: 1520000000 cycles: 557687117 heartbeat IPC: 2.37616 cumulative IPC: 2.35877 (Simulation time: 1 hr 51 min 9 sec) 
Heartbeat CPU 0 instructions: 1530000004 cycles: 561957275 heartbeat IPC: 2.34183 cumulative IPC: 2.35861 (Simulation time: 1 hr 51 min 39 sec) 
Heartbeat CPU 0 instructions: 1540000003 cycles: 566197790 heartbeat IPC: 2.3582 cumulative IPC: 2.3586 (Simulation time: 1 hr 52 min 9 sec) 
Heartbeat CPU 0 instructions: 1550000004 cycles: 570467400 heartbeat IPC: 2.34213 cumulative IPC: 2.35844 (Simulation time: 1 hr 52 min 40 sec) 
Heartbeat CPU 0 instructions: 1560000001 cycles: 574713072 heartbeat IPC: 2.35534 cumulative IPC: 2.35842 (Simulation time: 1 hr 53 min 11 sec) 
Heartbeat CPU 0 instructions: 1570000000 cycles: 578908503 heartbeat IPC: 2.38355 cumulative IPC: 2.35865 (Simulation time: 1 hr 53 min 42 sec) 
Heartbeat CPU 0 instructions: 1580000002 cycles: 583002684 heartbeat IPC: 2.44249 cumulative IPC: 2.3594 (Simulation time: 1 hr 54 min 13 sec) 
Heartbeat CPU 0 instructions: 1590000003 cycles: 587065374 heartbeat IPC: 2.46142 cumulative IPC: 2.3603 (Simulation time: 1 hr 54 min 42 sec) 
Heartbeat CPU 0 instructions: 1600000003 cycles: 591201977 heartbeat IPC: 2.41744 cumulative IPC: 2.3608 (Simulation time: 1 hr 55 min 12 sec) 
Heartbeat CPU 0 instructions: 1610000003 cycles: 595348376 heartbeat IPC: 2.41173 cumulative IPC: 2.36125 (Simulation time: 1 hr 55 min 53 sec) 
Heartbeat CPU 0 instructions: 1620000002 cycles: 599501811 heartbeat IPC: 2.40765 cumulative IPC: 2.36166 (Simulation time: 1 hr 56 min 44 sec) 
Heartbeat CPU 0 instructions: 1630000004 cycles: 603652274 heartbeat IPC: 2.40937 cumulative IPC: 2.36207 (Simulation time: 1 hr 57 min 33 sec) 
Heartbeat CPU 0 instructions: 1640000003 cycles: 607782427 heartbeat IPC: 2.42122 cumulative IPC: 2.36258 (Simulation time: 1 hr 58 min 25 sec) 
Heartbeat CPU 0 instructions: 1650000000 cycles: 611917093 heartbeat IPC: 2.41857 cumulative IPC: 2.36305 (Simulation time: 1 hr 59 min 16 sec) 
Heartbeat CPU 0 instructions: 1660000001 cycles: 616052893 heartbeat IPC: 2.41791 cumulative IPC: 2.36352 (Simulation time: 2 hr 0 min 2 sec) 
Heartbeat CPU 0 instructions: 1670000002 cycles: 620169705 heartbeat IPC: 2.42906 cumulative IPC: 2.36406 (Simulation time: 2 hr 0 min 31 sec) 
Heartbeat CPU 0 instructions: 1680000002 cycles: 624288833 heartbeat IPC: 2.4277 cumulative IPC: 2.36459 (Simulation time: 2 hr 1 min 0 sec) 
Heartbeat CPU 0 instructions: 1690000004 cycles: 628366978 heartbeat IPC: 2.4521 cumulative IPC: 2.3653 (Simulation time: 2 hr 1 min 30 sec) 
Heartbeat CPU 0 instructions: 1700000002 cycles: 637454386 heartbeat IPC: 1.10042 cumulative IPC: 2.34285 (Simulation time: 2 hr 2 min 6 sec) 
Heartbeat CPU 0 instructions: 1710000003 cycles: 644735347 heartbeat IPC: 1.37345 cumulative IPC: 2.32927 (Simulation time: 2 hr 2 min 43 sec) 
Heartbeat CPU 0 instructions: 1720000003 cycles: 648319830 heartbeat IPC: 2.7898 cumulative IPC: 2.33242 (Simulation time: 2 hr 3 min 13 sec) 
Heartbeat CPU 0 instructions: 1730000002 cycles: 652098898 heartbeat IPC: 2.64615 cumulative IPC: 2.33467 (Simulation time: 2 hr 3 min 45 sec) 
Heartbeat CPU 0 instructions: 1740000003 cycles: 656025105 heartbeat IPC: 2.54699 cumulative IPC: 2.33624 (Simulation time: 2 hr 4 min 16 sec) 
Heartbeat CPU 0 instructions: 1750000003 cycles: 659773979 heartbeat IPC: 2.66747 cumulative IPC: 2.33857 (Simulation time: 2 hr 4 min 47 sec) 
Heartbeat CPU 0 instructions: 1760000004 cycles: 663548298 heartbeat IPC: 2.64948 cumulative IPC: 2.34075 (Simulation time: 2 hr 5 min 18 sec) 
Heartbeat CPU 0 instructions: 1770000001 cycles: 667434898 heartbeat IPC: 2.57294 cumulative IPC: 2.34241 (Simulation time: 2 hr 5 min 49 sec) 
Heartbeat CPU 0 instructions: 1780000002 cycles: 671199531 heartbeat IPC: 2.6563 cumulative IPC: 2.34458 (Simulation time: 2 hr 6 min 20 sec) 
Heartbeat CPU 0 instructions: 1790000002 cycles: 674927079 heartbeat IPC: 2.68273 cumulative IPC: 2.34687 (Simulation time: 2 hr 6 min 51 sec) 
Heartbeat CPU 0 instructions: 1800000002 cycles: 678769059 heartbeat IPC: 2.60282 cumulative IPC: 2.34865 (Simulation time: 2 hr 7 min 22 sec) 
Heartbeat CPU 0 instructions: 1810000004 cycles: 682649916 heartbeat IPC: 2.57675 cumulative IPC: 2.35023 (Simulation time: 2 hr 8 min 9 sec) 
Heartbeat CPU 0 instructions: 1820000001 cycles: 686607087 heartbeat IPC: 2.52706 cumulative IPC: 2.35148 (Simulation time: 2 hr 9 min 4 sec) 
Heartbeat CPU 0 instructions: 1830000003 cycles: 690534042 heartbeat IPC: 2.5465 cumulative IPC: 2.35284 (Simulation time: 2 hr 9 min 46 sec) 
Heartbeat CPU 0 instructions: 1840000000 cycles: 694434008 heartbeat IPC: 2.56412 cumulative IPC: 2.35428 (Simulation time: 2 hr 10 min 16 sec) 
Heartbeat CPU 0 instructions: 1850000001 cycles: 698242382 heartbeat IPC: 2.62579 cumulative IPC: 2.35609 (Simulation time: 2 hr 10 min 47 sec) 
Heartbeat CPU 0 instructions: 1860000004 cycles: 702125254 heartbeat IPC: 2.57541 cumulative IPC: 2.35756 (Simulation time: 2 hr 11 min 17 sec) 
Heartbeat CPU 0 instructions: 1870000002 cycles: 705904138 heartbeat IPC: 2.64628 cumulative IPC: 2.35944 (Simulation time: 2 hr 11 min 47 sec) 
Heartbeat CPU 0 instructions: 1880000002 cycles: 717648229 heartbeat IPC: 0.851492 cumulative IPC: 2.32955 (Simulation time: 2 hr 13 min 32 sec) 
Heartbeat CPU 0 instructions: 1890000001 cycles: 721700215 heartbeat IPC: 2.46793 cumulative IPC: 2.33049 (Simulation time: 2 hr 14 min 43 sec) 
Heartbeat CPU 0 instructions: 1900000004 cycles: 726320305 heartbeat IPC: 2.16446 cumulative IPC: 2.32921 (Simulation time: 2 hr 15 min 32 sec) 
Heartbeat CPU 0 instructions: 1910000003 cycles: 730461665 heartbeat IPC: 2.41467 cumulative IPC: 2.3298 (Simulation time: 2 hr 16 min 7 sec) 
Heartbeat CPU 0 instructions: 1920000002 cycles: 734277521 heartbeat IPC: 2.62064 cumulative IPC: 2.33162 (Simulation time: 2 hr 16 min 41 sec) 
Heartbeat CPU 0 instructions: 1930000002 cycles: 738056008 heartbeat IPC: 2.64656 cumulative IPC: 2.33356 (Simulation time: 2 hr 17 min 15 sec) 
Heartbeat CPU 0 instructions: 1940000001 cycles: 741833389 heartbeat IPC: 2.64734 cumulative IPC: 2.33548 (Simulation time: 2 hr 18 min 5 sec) 
Heartbeat CPU 0 instructions: 1950000001 cycles: 745552502 heartbeat IPC: 2.68881 cumulative IPC: 2.3376 (Simulation time: 2 hr 19 min 5 sec) 
Heartbeat CPU 0 instructions: 1960000002 cycles: 749245135 heartbeat IPC: 2.7081 cumulative IPC: 2.33979 (Simulation time: 2 hr 20 min 6 sec) 
Heartbeat CPU 0 instructions: 1970000002 cycles: 753038649 heartbeat IPC: 2.63608 cumulative IPC: 2.34158 (Simulation time: 2 hr 21 min 7 sec) 
Heartbeat CPU 0 instructions: 1980000003 cycles: 756763319 heartbeat IPC: 2.6848 cumulative IPC: 2.34361 (Simulation time: 2 hr 22 min 5 sec) 
Heartbeat CPU 0 instructions: 1990000004 cycles: 760487430 heartbeat IPC: 2.6852 cumulative IPC: 2.34561 (Simulation time: 2 hr 23 min 5 sec) 
*** Reached end of trace: traces/625.x264_s-33B.champsimtrace.xz
Heartbeat CPU 0 instructions: 2000000004 cycles: 764275570 heartbeat IPC: 2.63982 cumulative IPC: 2.34736 (Simulation time: 2 hr 24 min 6 sec) 
Finished CPU 0 instructions: 1500000003 cycles: 639016871 cumulative IPC: 2.34736 (Simulation time: 2 hr 24 min 6 sec) 

ChampSim completed all CPUs

Region of Interest Statistics

CPU 0 cumulative IPC: 2.34736 instructions: 1500000003 cycles: 639016871
cpu0_DTLB TOTAL     ACCESS:  185985328  HIT:  184555382  MISS:    1429946
cpu0_DTLB LOAD      ACCESS:  133229833  HIT:  132313836  MISS:     915997
cpu0_DTLB RFO       ACCESS:   52755495  HIT:   52241546  MISS:     513949
cpu0_DTLB PREFETCH  ACCESS:          0  HIT:          0  MISS:          0
cpu0_DTLB WRITEBACK ACCESS:          0  HIT:          0  MISS:          0
cpu0_DTLB TRANSLATION ACCESS:          0  HIT:          0  MISS:          0
cpu0_DTLB PREFETCH  REQUESTED:          0  ISSUED:          0  USEFUL:          0  USELESS:          0
cpu0_DTLB AVERAGE MISS LATENCY: 11.3024 cycles
cpu0_ITLB TOTAL     ACCESS:   90358793  HIT:   90357067  MISS:       1726
cpu0_ITLB LOAD      ACCESS:   90358793  HIT:   90357067  MISS:       1726
cpu0_ITLB RFO       ACCESS:          0  HIT:          0  MISS:          0
cpu0_ITLB PREFETCH  ACCESS:          0  HIT:          0  MISS:          0
cpu0_ITLB WRITEBACK ACCESS:          0  HIT:          0  MISS:          0
cpu0_ITLB TRANSLATION ACCESS:          0  HIT:          0  MISS:          0
cpu0_ITLB PREFETCH  REQUESTED:          0  ISSUED:          0  USEFUL:          0  USELESS:          0
cpu0_ITLB AVERAGE MISS LATENCY: 23.2677 cycles
cpu0_L1I TOTAL     ACCESS:   43726995  HIT:   42110065  MISS:    1616930
cpu0_L1I LOAD      ACCESS:   43726995  HIT:   42110065  MISS:    1616930
cpu0_L1I RFO       ACCESS:          0  HIT:          0  MISS:          0
cpu0_L1I PREFETCH  ACCESS:          0  HIT:          0  MISS:          0
cpu0_L1I WRITEBACK ACCESS:          0  HIT:          0  MISS:          0
cpu0_L1I TRANSLATION ACCESS:          0  HIT:          0  MISS:          0
cpu0_L1I PREFETCH  REQUESTED:          0  ISSUED:          0  USEFUL:          0  USELESS:          0
cpu0_L1I AVERAGE MISS LATENCY: 13.2642 cycles
cpu0_STLB TOTAL     ACCESS:    1431672  HIT:    1409151  MISS:      22521
cpu0_STLB LOAD      ACCESS:     917723  HIT:     903568  MISS:      14155
cpu0_STLB RFO       ACCESS:     513949  HIT:     505583  MISS:       8366
cpu0_STLB PREFETCH  ACCESS:          0  HIT:          0  MISS:          0
cpu0_STLB WRITEBACK ACCESS:          0  HIT:          0  MISS:          0
cpu0_STLB TRANSLATION ACCESS:          0  HIT:          0  MISS:          0
cpu0_STLB PREFETCH  REQUESTED:          0  ISSUED:          0  USEFUL:          0  USELESS:          0
cpu0_STLB AVERAGE MISS LATENCY: 143.926 cycles
cpu0_L1D TOTAL     ACCESS:  223088073  HIT:  220564909  MISS:    2523164
cpu0_L1D LOAD      ACCESS:  116430233  HIT:  114649146  MISS:    1781087
cpu0_L1D RFO       ACCESS:  106637113  HIT:  105897137  MISS:     739976
cpu0_L1D PREFETCH  ACCESS:          0  HIT:          0  MISS:          0
cpu0_L1D WRITEBACK ACCESS:          0  HIT:          0  MISS:          0
cpu0_L1D TRANSLATION ACCESS:      20727  HIT:      18626  MISS:       2101
cpu0_L1D PREFETCH  REQUESTED:          0  ISSUED:          0  USEFUL:          0  USELESS:          0
cpu0_L1D AVERAGE MISS LATENCY: 246.907 cycles
cpu0_L2C TOTAL     ACCESS:    5022144  HIT:    3283075  MISS:    1739069
cpu0_L2C LOAD      ACCESS:    3397994  HIT:    2207730  MISS:    1190264
cpu0_L2C RFO       ACCESS:     734782  HIT:     187224  MISS:     547558
cpu0_L2C PREFETCH  ACCESS:          0  HIT:          0  MISS:          0
cpu0_L2C WRITEBACK ACCESS:     887267  HIT:     886257  MISS:       1010
cpu0_L2C TRANSLATION ACCESS:       2101  HIT:       1864  MISS:        237
cpu0_L2C PREFETCH  REQUESTED:          0  ISSUED:          0  USEFUL:          0  USELESS:          0
cpu0_L2C AVERAGE MISS LATENCY: 344.288 cycles
LLC TOTAL     ACCESS:    2393839  HIT:     896172  MISS:    1497667
LLC LOAD      ACCESS:    1190261  HIT:     239439  MISS:     950822
LLC RFO       ACCESS:     547557  HIT:       2726  MISS:     544831
LLC PREFETCH  ACCESS:          0  HIT:          0  MISS:          0
LLC WRITEBACK ACCESS:     655784  HIT:     653878  MISS:       1906
LLC TRANSLATION ACCESS:        237  HIT:        129  MISS:        108
LLC PREFETCH  REQUESTED:          0  ISSUED:          0  USEFUL:          0  USELESS:          0
LLC AVERAGE MISS LATENCY: 375.411 cycles
~~~~~~~~~~Reuse Distance Profiler output~~~~~~~~~~
0	91018048	19062496
1	40908768	26202512
2	20411696	12550912
3	17043152	11470832
4	13084816	7988976
5	9761680	7305360
6	9264480	7087248
7	13856336	9432736
8	5343856	3615472
9	4376352	2698304
10	2542368	1604736
11	1776736	1006128
12	1735488	1045536
13	1739984	1129936
14	3173072	2537488
15	2228512	1393632
16	1248096	827824
17	1498336	971136
18	1672656	1263440
19	1365216	928560
20	1581184	1240176
21	1413776	1071488
22	1441920	1069712
23	957648	740224
24	1461600	1053168
25	1137984	757328
26	776096	592080
27	784416	520272
28	615568	336848
29	413904	273744
30	486432	359072
31	454832	303056
32	361264	184320
33	479728	304208
34	697152	403760
35	687568	537392
36	560560	414080
37	414176	334448
38	458656	372320
39	474912	357776
40	449088	335648
41	493008	348736
42	431200	287408
43	414432	323840
44	486944	313360
45	418880	204912
46	452992	284880
47	348192	214032
48	342096	270128
49	421248	324672
50	372976	209328
51	306048	221232
52	310768	238128
53	314960	246032
54	263408	145856
55	213248	148480
56	275216	191744
57	241552	166592
58	310176	251392
59	223328	166880
60	222112	138112
61	249024	172656
62	209952	150032
63	210624	155024
64	443872	325568
66	400192	301792
68	417200	272000
70	378896	219936
72	551648	404384
74	444800	317856
76	391408	218736
78	292080	206128
80	245680	195552
82	496224	388336
84	253152	169392
86	213632	151488
88	180144	125872
90	413520	353872
92	290496	236240
94	255008	210464
96	367392	290080
98	364528	337072
100	293712	248848
102	234208	197472
104	323120	273808
106	289072	247984
108	266416	132896
110	246512	196560
112	256256	131184
114	182800	137200
116	314000	181312
118	197328	142320
120	144368	111520
122	373792	343328
124	336736	313760
126	278960	228448
128	437296	380160
132	328416	282976
136	385200	303200
140	365776	296896
144	526976	469776
148	308320	260912
152	275600	226432
156	389648	337776
160	323616	254528
164	378144	281680
168	381376	219440
172	267008	197360
176	303040	248064
180	202960	128848
184	241216	177856
188	196992	153520
192	211008	181040
196	209920	167344
200	194352	146096
204	153824	123648
208	191696	147824
212	170640	125488
216	142288	120848
220	268928	245488
224	143264	126736
228	141952	127312
232	407584	387952
236	313136	265248
240	313520	294752
244	328080	317504
248	1042800	1031072
252	454112	443840
256	945984	925008
264	439792	413136
272	376752	349536
280	373776	334624
288	306736	283360
296	606160	585520
304	592624	583632
312	446304	421072
320	240640	214448
328	144144	117440
336	167008	148656
344	135536	122320
352	113312	100688
360	109136	96368
368	118448	95392
376	128848	116688
384	131184	125152
392	146448	128912
400	113296	92976
408	132304	118480
416	118336	103504
424	133408	109328
432	96112	83088
440	109232	95120
448	108800	82176
456	146624	123328
464	132512	108368
472	128800	104640
480	112464	98272
488	113520	92384
496	98320	85920
504	135200	117280
512	243072	183200
528	318192	260368
544	157792	117952
560	119248	94240
576	129360	106416
592	164640	136208
608	135472	111104
624	84560	75904
640	87680	76816
656	137840	124480
672	88880	69824
688	97680	72032
704	114608	92944
720	129200	109104
736	156400	129296
752	134256	114528
768	109728	92032
784	119296	98960
800	97952	85024
816	84192	54544
832	69776	54288
848	90896	70032
864	100176	83520
880	61056	45392
896	60112	38512
912	77200	62112
928	69168	54016
944	73280	63216
960	52048	42016
976	50512	38192
992	46192	32384
1008	41120	34624
1024	88160	69472
1056	106752	84192
1088	113200	85152
1120	93520	82144
1152	108624	64656
1184	74208	52704
1216	62000	49968
1248	45216	30544
1280	66576	49600
1312	91616	76464
1344	115472	102208
1376	74048	56576
1408	150448	100736
1440	195952	181056
1472	114320	75344
1504	235408	161968
1536	154816	92960
1568	79280	49040
1600	129792	89584
1632	179360	136848
1664	116256	84480
1696	129232	109552
1728	199120	156896
1760	318560	257872
1792	137008	90608
1824	118272	74816
1856	100496	59280
1888	93168	66944
1920	90816	53568
1952	87744	59184
1984	83904	59968
2016	134720	103488
2048	156608	113072
2112	152128	115408
2176	152704	114256
2240	183968	115536
2304	286400	189296
2368	291072	196848
2432	231408	160432
2496	173600	121744
2560	193584	144864
2624	206656	141232
2688	234368	154640
2752	276736	173456
2816	190592	144448
2880	198176	147504
2944	180320	111840
3008	139872	98992
3072	164000	127984
3136	308192	229344
3200	215728	126480
3264	179680	88736
3328	173408	105040
3392	166832	113184
3456	135952	94896
3520	137056	94992
3584	194736	133744
3648	405216	297184
3712	542720	407600
3776	530064	360528
3840	146000	101536
3904	128672	88880
3968	262720	196240
4032	440112	340688
4096	592144	415088
4224	122336	96400
4352	81360	66608
4480	108256	94816
4608	69216	57472
4736	67904	54864
4864	90448	75920
4992	151216	130448
5120	63888	54720
5248	53232	44880
5376	41744	35168
5504	33456	27168
5632	30768	24880
5760	29792	24080
5888	26704	21392
6016	24592	19488
6144	28960	22880
6272	25728	20928
6400	24912	18944
6528	26032	19648
6656	24688	20160
6784	23392	17728
6912	19344	14928
7040	20144	13904
7168	18256	13392
7296	20112	15056
7424	18496	13504
7552	16976	11248
7680	18624	13104
7808	16784	12096
7936	18016	13008
8064	16912	11776
8192	38144	27408
8448	35984	24720
8704	39424	26816
8960	52352	37856
9216	46464	31168
9472	49936	32672
9728	102704	87344
9984	152448	137680
10240	49344	36512
10496	41216	27632
10752	34928	23568
11008	32368	21536
11264	26608	18112
11520	27120	18848
11776	69008	60544
12032	26128	18112
12288	23296	15632
12544	21008	14432
12800	18960	12544
13056	17968	12064
13312	15248	10080
13568	14224	10448
13824	13888	9088
14080	14144	9856
14336	13872	9408
14592	14512	9824
14848	11648	8432
15104	8704	6000
15360	7792	5328
15616	5232	3696
15872	4128	2800
16128	4032	2784
16384	5904	3904
16896	4640	2816
17408	4320	2864
17920	4304	2864
18432	4112	2672
18944	4512	2992
19456	3552	2576
19968	3696	2432
20480	2672	1712
20992	2944	2048
21504	3024	2080
22016	2672	1536
22528	2528	1840
23040	2624	1824
23552	2560	1664
24064	1904	1232
24576	2144	1392
25088	1888	1168
25600	1808	1136
26112	1664	1104
26624	1680	1216
27136	1168	752
27648	1456	880
28160	1824	1136
28672	1440	912
29184	1744	1200
29696	1712	1200
30208	1552	1024
30720	1280	848
31232	1392	1088
31744	1088	832
32256	992	720
32768	1952	1424
33792	1824	1072
34816	1744	1152
35840	1728	1056
36864	1888	1264
37888	1408	960
38912	1472	976
39936	1840	1472
40960	1296	816
41984	1600	1088
43008	1216	816
44032	1424	944
45056	1072	720
46080	1168	752
47104	832	528
48128	1008	688
49152	960	752
50176	736	608
51200	912	688
52224	1008	816
53248	976	736
54272	880	736
55296	704	544
56320	864	592
57344	720	496
58368	640	448
59392	848	656
60416	1120	944
61440	1040	752
62464	1120	896
63488	800	656
64512	768	592
65536	1648	1440
67584	2000	1616
69632	1888	1440
71680	2160	1840
73728	2048	1808
75776	1632	1392
77824	1504	1312
79872	1840	1632
81920	2064	1920
83968	2256	2064
86016	1648	1568
88064	1760	1536
90112	1824	1712
92160	1632	1440
94208	2080	1856
96256	1712	1584
98304	1680	1408
100352	1248	1008
102400	1392	1184
104448	1696	1584
106496	1248	1088
108544	1472	1360
110592	1376	1232
112640	1360	1248
114688	1248	1056
116736	912	832
118784	768	624
120832	848	784
122880	1248	992
124928	1264	1120
126976	2192	2064
129024	2272	2096
131072	2320	2048
135168	2432	2096
139264	2080	1856
143360	4336	4080
147456	6672	6400
151552	7568	7280
155648	7792	7696
159744	6560	6384
163840	9232	8880
167936	9152	8528
172032	8880	8064
176128	17296	13744
180224	37824	35184
184320	8320	7648
188416	8224	7296
192512	8624	7776
196608	9664	8672
200704	7424	6816
204800	6624	6128
208896	5760	5120
212992	5152	4608
217088	5840	5040
221184	5936	5328
225280	5232	4640
229376	5328	4432
233472	5056	4368
237568	12800	12416
241664	16208	15520
245760	15456	15168
249856	16000	15504
253952	16736	16416
258048	15792	15456
262144	19024	18208
270336	8752	7824
278528	11600	10960
286720	9392	7904
294912	5584	5040
303104	4272	3648
311296	5072	4384
319488	5024	4416
327680	4704	4096
335872	5680	4528
344064	5488	4496
352256	4912	4288
360448	4304	3456
368640	4672	3904
376832	5184	4464
385024	4176	3664
393216	4144	3696
401408	4128	3488
409600	4592	4064
417792	4048	3488
425984	4384	3856
434176	2992	2624
442368	4640	4096
450560	4000	3232
458752	4064	3552
466944	4224	3584
475136	4128	3744
483328	5024	4416
491520	4576	4176
499712	4720	4080
507904	5024	4432
516096	3824	3424
524288	6400	5776
540672	6320	5904
557056	6160	5584
573440	5488	4928
589824	4624	4128
606208	4640	4416
622592	4720	4528
638976	5376	5168
655360	4416	4256
671744	3648	3536
688128	4288	4176
704512	3120	3040
720896	4064	3984
737280	3152	3040
753664	3200	3152
770048	2736	2656
786432	2864	2768
802816	2752	2656
819200	2784	2656
835584	2944	2848
851968	2144	2016
868352	2880	2640
884736	2032	1920
901120	2320	2208
917504	1968	1872
933888	2064	1920
950272	1760	1648
966656	2128	2064
983040	1904	1808
999424	1984	1840
1015808	2176	2080
1032192	1984	1920
1048576	4224	4080
1081344	3536	3312
1114112	3872	3776
1146880	4192	4080
1179648	3968	3872
1212416	3696	3568
1245184	3568	3456
1277952	3728	3600
1310720	3472	3312
1343488	4192	4032
1376256	3456	3248
1409024	3952	3760
1441792	3504	3328
1474560	3920	3696
1507328	4000	3776
1540096	4016	3840
1572864	3584	3440
1605632	4144	3888
1638400	3616	3552
1671168	3888	3776
1703936	3072	3024
1736704	304	224
1769472	224	32
1802240	160	48
1835008	256	64
1867776	2736	2592
1900544	3792	3648
1933312	3952	3760
1966080	3888	3744
1998848	3984	3824
2031616	3776	3584
2064384	3600	3488
2097152	7216	6816
2162688	6784	6592
2228224	288	48
2293760	336	112
2359296	416	160
2424832	528	112
2490368	464	80
2555904	480	160
2621440	688	208
2686976	320	64
2752512	352	80
2818048	448	96
2883584	480	64
2949120	416	128
3014656	848	160
3080192	384	80
3145728	448	128
3211264	480	128
3276800	336	128
3342336	320	128
3407872	432	96
3473408	464	96
3538944	368	80
3604480	288	112
3670016	384	64
3735552	416	96
3801088	432	48
3866624	336	112
3932160	320	64
3997696	320	64
4063232	560	80
4128768	272	80
4194304	608	208
4325376	608	160
4456448	672	64
4587520	896	112
4718592	768	160
4849664	496	160
4980736	704	224
5111808	768	176
5242880	720	144
5373952	784	288
5505024	1264	768
5636096	1312	656
5767168	1184	736
5898240	1344	768
6029312	1200	672
6160384	1408	768
6291456	1376	672
6422528	784	192
6553600	624	128
6684672	704	128
6815744	816	128
6946816	464	48
7077888	688	96
7208960	816	128
7340032	816	112
7471104	608	128
7602176	560	128
7733248	736	64
7864320	800	208
7995392	496	144
8126464	544	80
8257536	784	160
8388608	1104	240
8650752	1312	224
8912896	1248	128
9175040	1008	176
9437184	1424	160
9699328	1888	944
9961472	1920	864
10223616	1904	912
10485760	1744	880
10747904	1728	720
11010048	2032	848
11272192	1760	768
11534336	1536	752
11796480	1840	880
12058624	2336	1456
12320768	4784	3728
12582912	3968	2832
12845056	2688	1680
13107200	3056	1872
13369344	3424	2352
13631488	3296	2208
13893632	2928	2064
14155776	2720	2256
14417920	2512	2272
14680064	2000	1728
14942208	2336	2096
15204352	2192	1968
15466496	2208	1920
15728640	2000	1376
15990784	29120	22784
16252928	81984	58464
16515072	31072	25280
16777216	7104	6640
17301504	7760	7152
17825792	8464	7744
18350080	7648	6928
18874368	7872	7216
19398656	6640	6176
19922944	4784	4016
20447232	4288	3728
20971520	4448	3920
21495808	3328	2752
22020096	3888	3232
22544384	4512	3792
23068672	5120	4384
23592960	6112	5296
24117248	6704	6144
24641536	6176	5904
25165824	6096	5920
25690112	4448	4272
26214400	6128	5728
26738688	45808	44672
27262976	6608	6256
27787264	8048	7680
28311552	9360	8736
28835840	14896	13664
29360128	16656	16304
29884416	6320	6096
30408704	5712	5504
30932992	4080	3904
31457280	4208	4016
31981568	5088	4944
32505856	5872	5360
33030144	5936	5760
33554432	5520	5408
34603008	2400	2400
35651584	2880	2880
36700160	2368	2368
37748736	2752	2720
38797312	2960	2960
39845888	2368	2368
40894464	2336	2336
41943040	2656	2656
42991616	2400	2400
44040192	672	672
45088768	304	304
46137344	448	448
47185920	400	400
48234496	320	320
49283072	224	224
50331648	432	432
51380224	592	592
52428800	384	384
53477376	368	368
54525952	368	368
55574528	352	352
56623104	400	400
57671680	816	816
58720256	1024	1024
59768832	1312	1312
60817408	1440	1440
61865984	1152	1136
62914560	1120	1120
63963136	832	832
65011712	704	704
66060288	928	928
67108864	1680	1680
69206016	1360	1344
71303168	1328	1328
73400320	6160	6160
75497472	6960	6960
77594624	1888	1888
79691776	1776	1776
81788928	1504	1504
83886080	3232	3232
85983232	2752	2752
88080384	2016	2000
90177536	2048	2048
92274688	144	144
94371840	160	144
96468992	144	64
98566144	48	48
100663296	48	48
102760448	16	16
104857600	80	80
106954752	208	112
109051904	816	816
111149056	3616	3616
113246208	3376	3376
115343360	3344	3312
117440512	3632	3632
119537664	64	64
121634816	12064	5232
123731968	8112	3344
125829120	9488	4304
127926272	6816	2896
130023424	7776	2832
132120576	9104	2784
134217728	44992	37680
138412032	3920	48
142606336	0	0
146800640	16	16
150994944	448	16
155189248	560	64
159383552	0	0
163577856	3920	3904
167772160	928	768
171966464	128	0
176160768	0	0
180355072	0	0
184549376	0	0
188743680	0	0
192937984	15216	14176
197132288	29648	24912
201326592	2912	48
205520896	2800	16
209715200	3072	16
213909504	2704	48
218103808	2720	16
222298112	3056	16
226492416	1088	0
230686720	64	64
234881024	32	32
239075328	64	64
243269632	5280	5280
247463936	16	16
251658240	0	0
255852544	16	16
260046848	48	48
264241152	784	32
268435456	2768	0
276824064	0	0
285212672	0	0
293601280	0	0
301989888	0	0
310378496	0	0
318767104	0	0
327155712	0	0
335544320	0	0
343932928	0	0
352321536	0	0
360710144	0	0
369098752	0	0
377487360	0	0
385875968	0	0
394264576	0	0
402653184	0	0
411041792	0	0
419430400	0	0
427819008	0	0
436207616	0	0
444596224	0	0
452984832	0	0
461373440	0	0
469762048	0	0
478150656	0	0
486539264	0	0
494927872	0	0
503316480	0	0
511705088	0	0
520093696	0	0
528482304	0	0
536870912	0	0
553648128	0	0
570425344	0	0
587202560	0	0
603979776	0	0
620756992	0	0
637534208	0	0
654311424	0	0
671088640	0	0
687865856	0	0
704643072	0	0
721420288	0	0
738197504	0	0
754974720	0	0
771751936	0	0
788529152	0	0
805306368	0	0
822083584	0	0
838860800	0	0
855638016	0	0
872415232	0	0
889192448	0	0
905969664	0	0
922746880	0	0
939524096	0	0
956301312	0	0
973078528	0	0
989855744	0	0
1006632960	0	0
1023410176	0	0
1040187392	0	0
1056964608	0	0
1073741824	0	0
1107296256	0	0
1140850688	0	0
1174405120	0	0
1207959552	0	0
1241513984	0	0
1275068416	0	0
1308622848	0	0
1342177280	0	0
1375731712	0	0
1409286144	0	0
1442840576	0	0
1476395008	0	0
1509949440	0	0
1543503872	0	0
1577058304	0	0
1610612736	0	0
1644167168	0	0
1677721600	0	0
1711276032	0	0
1744830464	0	0
1778384896	0	0
1811939328	0	0
1845493760	0	0
1879048192	0	0
1912602624	0	0
1946157056	0	0
1979711488	0	0
2013265920	0	0
2046820352	0	0
2080374784	0	0
2113929216	0	0
2147483648	0	0
2214592512	0	0
2281701376	0	0
2348810240	0	0
2415919104	0	0
2483027968	0	0
2550136832	0	0
2617245696	0	0
2684354560	0	0
2751463424	0	0
2818572288	0	0
2885681152	0	0
2952790016	0	0
3019898880	0	0
3087007744	0	0
3154116608	0	0
3221225472	0	0
3288334336	0	0
3355443200	0	0
3422552064	0	0
3489660928	0	0
3556769792	0	0
3623878656	0	0
3690987520	0	0
3758096384	0	0
3825205248	0	0
3892314112	0	0
3959422976	0	0
4026531840	0	0
4093640704	0	0
4160749568	0	0
4227858432	0	0
~~~~~~~~~~Reuse Distance Profiler output end~~~~~~~~~~

DRAM Statistics
 CHANNEL 0
 RQ ROW_BUFFER_HIT:      97741  ROW_BUFFER_MISS:    1397839
 DBUS AVG_CONGESTED_CYCLE:    3.95821
 WQ ROW_BUFFER_HIT:     101000  ROW_BUFFER_MISS:     550775  FULL:          0


CPU 0 Branch Prediction Accuracy: 84.7368% MPKI: 6.00976 Average ROB Occupancy at Mispredict: 95.1561
Branch type MPKI
BRANCH_DIRECT_JUMP: 7.93333e-05
BRANCH_INDIRECT: 0.000336667
BRANCH_CONDITIONAL: 5.93558
BRANCH_DIRECT_CALL: 0.000142
BRANCH_INDIRECT_CALL: 0.00961933
BRANCH_RETURN: 0.0640053

