
*** ChampSim Multicore Out-of-Order Simulator ***

Warmup Instructions: 500000000
Simulation Instructions: 1500000000
Number of CPUs: 1
Off-chip DRAM Size: 4 GiB Channels: 1 Width: 64-bit Data Rate: 3200 MT/s

VirtualMemory physical capacity: 8588881920 num_ppages: 2096895
VirtualMemory page size: 4096 log2_page_size: 12

CPU 0 runs traces/627.cam4_s-490B.champsimtrace.xz
CPU 0 Bimodal branch predictor
Basic BTB sets: 1024 ways: 8 indirect buffer size: 4096 RAS size: 64
Initializing LRU.
Initializing LRU.
Initializing LRU.
Initializing LRU.
Initializing rdLRU.
Initializing LRU.
Initializing LRU.
Heartbeat CPU 0 instructions: 10000000 cycles: 2634421 heartbeat IPC: 3.7959 cumulative IPC: 3.7959 (Simulation time: 0 hr 0 min 49 sec) 
Heartbeat CPU 0 instructions: 20000000 cycles: 5268281 heartbeat IPC: 3.79671 cumulative IPC: 3.7963 (Simulation time: 0 hr 1 min 33 sec) 
Heartbeat CPU 0 instructions: 30000000 cycles: 7886758 heartbeat IPC: 3.81901 cumulative IPC: 3.80384 (Simulation time: 0 hr 2 min 19 sec) 
Heartbeat CPU 0 instructions: 40000001 cycles: 10512917 heartbeat IPC: 3.80784 cumulative IPC: 3.80484 (Simulation time: 0 hr 3 min 14 sec) 
Heartbeat CPU 0 instructions: 50000000 cycles: 13130969 heartbeat IPC: 3.81963 cumulative IPC: 3.80779 (Simulation time: 0 hr 4 min 10 sec) 
Heartbeat CPU 0 instructions: 60000001 cycles: 15786907 heartbeat IPC: 3.76515 cumulative IPC: 3.80062 (Simulation time: 0 hr 5 min 6 sec) 
Heartbeat CPU 0 instructions: 70000003 cycles: 18402294 heartbeat IPC: 3.82353 cumulative IPC: 3.80387 (Simulation time: 0 hr 6 min 0 sec) 
Heartbeat CPU 0 instructions: 80000003 cycles: 21036601 heartbeat IPC: 3.79606 cumulative IPC: 3.8029 (Simulation time: 0 hr 6 min 54 sec) 
Heartbeat CPU 0 instructions: 90000002 cycles: 23656200 heartbeat IPC: 3.81738 cumulative IPC: 3.8045 (Simulation time: 0 hr 7 min 36 sec) 
Heartbeat CPU 0 instructions: 100000001 cycles: 26283154 heartbeat IPC: 3.80669 cumulative IPC: 3.80472 (Simulation time: 0 hr 8 min 28 sec) 
Heartbeat CPU 0 instructions: 110000001 cycles: 28936764 heartbeat IPC: 3.76845 cumulative IPC: 3.80139 (Simulation time: 0 hr 9 min 23 sec) 
Heartbeat CPU 0 instructions: 120000000 cycles: 31552492 heartbeat IPC: 3.82303 cumulative IPC: 3.80319 (Simulation time: 0 hr 10 min 11 sec) 
Heartbeat CPU 0 instructions: 130000001 cycles: 34189096 heartbeat IPC: 3.79276 cumulative IPC: 3.80238 (Simulation time: 0 hr 10 min 47 sec) 
Heartbeat CPU 0 instructions: 140000000 cycles: 36806647 heartbeat IPC: 3.82036 cumulative IPC: 3.80366 (Simulation time: 0 hr 11 min 41 sec) 
Heartbeat CPU 0 instructions: 150000001 cycles: 39433899 heartbeat IPC: 3.80626 cumulative IPC: 3.80383 (Simulation time: 0 hr 12 min 36 sec) 
Heartbeat CPU 0 instructions: 160000000 cycles: 42070874 heartbeat IPC: 3.79222 cumulative IPC: 3.80311 (Simulation time: 0 hr 13 min 20 sec) 
Heartbeat CPU 0 instructions: 170000002 cycles: 44705158 heartbeat IPC: 3.7961 cumulative IPC: 3.80269 (Simulation time: 0 hr 14 min 4 sec) 
Heartbeat CPU 0 instructions: 180000002 cycles: 47320458 heartbeat IPC: 3.82365 cumulative IPC: 3.80385 (Simulation time: 0 hr 14 min 49 sec) 
Heartbeat CPU 0 instructions: 190000001 cycles: 49958798 heartbeat IPC: 3.79026 cumulative IPC: 3.80313 (Simulation time: 0 hr 15 min 22 sec) 
Heartbeat CPU 0 instructions: 200000000 cycles: 52577180 heartbeat IPC: 3.81915 cumulative IPC: 3.80393 (Simulation time: 0 hr 16 min 4 sec) 
Heartbeat CPU 0 instructions: 210000001 cycles: 55214241 heartbeat IPC: 3.7921 cumulative IPC: 3.80337 (Simulation time: 0 hr 16 min 45 sec) 
Heartbeat CPU 0 instructions: 220000001 cycles: 57854878 heartbeat IPC: 3.78697 cumulative IPC: 3.80262 (Simulation time: 0 hr 17 min 16 sec) 
Heartbeat CPU 0 instructions: 230000001 cycles: 60483785 heartbeat IPC: 3.80386 cumulative IPC: 3.80267 (Simulation time: 0 hr 17 min 47 sec) 
Heartbeat CPU 0 instructions: 240000000 cycles: 63109611 heartbeat IPC: 3.80833 cumulative IPC: 3.80291 (Simulation time: 0 hr 18 min 18 sec) 
Heartbeat CPU 0 instructions: 250000002 cycles: 65727667 heartbeat IPC: 3.81963 cumulative IPC: 3.80357 (Simulation time: 0 hr 18 min 59 sec) 
Heartbeat CPU 0 instructions: 260000001 cycles: 68369080 heartbeat IPC: 3.78585 cumulative IPC: 3.80289 (Simulation time: 0 hr 19 min 45 sec) 
Heartbeat CPU 0 instructions: 270000001 cycles: 70989008 heartbeat IPC: 3.8169 cumulative IPC: 3.80341 (Simulation time: 0 hr 20 min 18 sec) 
Heartbeat CPU 0 instructions: 280000001 cycles: 73636569 heartbeat IPC: 3.77706 cumulative IPC: 3.80246 (Simulation time: 0 hr 20 min 52 sec) 
Heartbeat CPU 0 instructions: 290000000 cycles: 76253136 heartbeat IPC: 3.8218 cumulative IPC: 3.80312 (Simulation time: 0 hr 21 min 22 sec) 
Heartbeat CPU 0 instructions: 300000003 cycles: 78880235 heartbeat IPC: 3.80648 cumulative IPC: 3.80323 (Simulation time: 0 hr 21 min 58 sec) 
Heartbeat CPU 0 instructions: 310000001 cycles: 81518262 heartbeat IPC: 3.79071 cumulative IPC: 3.80283 (Simulation time: 0 hr 22 min 53 sec) 
Heartbeat CPU 0 instructions: 320000001 cycles: 84152976 heartbeat IPC: 3.79548 cumulative IPC: 3.8026 (Simulation time: 0 hr 23 min 35 sec) 
Heartbeat CPU 0 instructions: 330000001 cycles: 86786935 heartbeat IPC: 3.79657 cumulative IPC: 3.80242 (Simulation time: 0 hr 24 min 23 sec) 
Heartbeat CPU 0 instructions: 340000001 cycles: 89405621 heartbeat IPC: 3.81871 cumulative IPC: 3.80289 (Simulation time: 0 hr 25 min 7 sec) 
Heartbeat CPU 0 instructions: 350000002 cycles: 92032039 heartbeat IPC: 3.80747 cumulative IPC: 3.80302 (Simulation time: 0 hr 25 min 47 sec) 
Heartbeat CPU 0 instructions: 360000001 cycles: 94650463 heartbeat IPC: 3.81909 cumulative IPC: 3.80347 (Simulation time: 0 hr 26 min 19 sec) 
Heartbeat CPU 0 instructions: 370000000 cycles: 97306622 heartbeat IPC: 3.76483 cumulative IPC: 3.80241 (Simulation time: 0 hr 26 min 52 sec) 
Heartbeat CPU 0 instructions: 380000002 cycles: 99922019 heartbeat IPC: 3.82351 cumulative IPC: 3.80297 (Simulation time: 0 hr 27 min 22 sec) 
Heartbeat CPU 0 instructions: 390000003 cycles: 103050601 heartbeat IPC: 3.19634 cumulative IPC: 3.78455 (Simulation time: 0 hr 28 min 8 sec) 
Heartbeat CPU 0 instructions: 400000000 cycles: 105568053 heartbeat IPC: 3.97227 cumulative IPC: 3.78903 (Simulation time: 0 hr 28 min 40 sec) 
Heartbeat CPU 0 instructions: 410000003 cycles: 108085511 heartbeat IPC: 3.97226 cumulative IPC: 3.79329 (Simulation time: 0 hr 29 min 12 sec) 
Heartbeat CPU 0 instructions: 420000003 cycles: 110602964 heartbeat IPC: 3.97227 cumulative IPC: 3.79737 (Simulation time: 0 hr 29 min 44 sec) 
Heartbeat CPU 0 instructions: 430000000 cycles: 113120412 heartbeat IPC: 3.97228 cumulative IPC: 3.80126 (Simulation time: 0 hr 30 min 16 sec) 
Heartbeat CPU 0 instructions: 440000000 cycles: 115637867 heartbeat IPC: 3.97227 cumulative IPC: 3.80498 (Simulation time: 0 hr 30 min 49 sec) 
Heartbeat CPU 0 instructions: 450000003 cycles: 118155320 heartbeat IPC: 3.97227 cumulative IPC: 3.80855 (Simulation time: 0 hr 31 min 25 sec) 
Heartbeat CPU 0 instructions: 460000002 cycles: 120672772 heartbeat IPC: 3.97227 cumulative IPC: 3.81196 (Simulation time: 0 hr 32 min 4 sec) 
Heartbeat CPU 0 instructions: 470000002 cycles: 123190220 heartbeat IPC: 3.97228 cumulative IPC: 3.81524 (Simulation time: 0 hr 32 min 49 sec) 
Heartbeat CPU 0 instructions: 480000000 cycles: 125707671 heartbeat IPC: 3.97227 cumulative IPC: 3.81838 (Simulation time: 0 hr 33 min 45 sec) 
Heartbeat CPU 0 instructions: 490000000 cycles: 128225122 heartbeat IPC: 3.97227 cumulative IPC: 3.8214 (Simulation time: 0 hr 34 min 30 sec) 
Heartbeat CPU 0 instructions: 500000000 cycles: 130742569 heartbeat IPC: 3.97228 cumulative IPC: 3.82431 (Simulation time: 0 hr 35 min 26 sec) 

Warmup complete CPU 0 instructions: 500000004 cycles: 130742570 (Simulation time: 0 hr 35 min 26 sec) 

Heartbeat CPU 0 instructions: 510000000 cycles: 174018870 heartbeat IPC: 0.231073 cumulative IPC: 0.231073 (Simulation time: 0 hr 40 min 52 sec) 
Heartbeat CPU 0 instructions: 520000000 cycles: 188137039 heartbeat IPC: 0.708307 cumulative IPC: 0.348466 (Simulation time: 0 hr 43 min 15 sec) 
Heartbeat CPU 0 instructions: 530000000 cycles: 205949982 heartbeat IPC: 0.56139 cumulative IPC: 0.398897 (Simulation time: 0 hr 46 min 31 sec) 
Heartbeat CPU 0 instructions: 540000004 cycles: 219112195 heartbeat IPC: 0.759751 cumulative IPC: 0.452644 (Simulation time: 0 hr 49 min 13 sec) 
Heartbeat CPU 0 instructions: 550000003 cycles: 229586748 heartbeat IPC: 0.954695 cumulative IPC: 0.505847 (Simulation time: 0 hr 51 min 50 sec) 
Heartbeat CPU 0 instructions: 560000002 cycles: 237072450 heartbeat IPC: 1.33588 cumulative IPC: 0.564282 (Simulation time: 0 hr 53 min 49 sec) 
Heartbeat CPU 0 instructions: 570000000 cycles: 245092145 heartbeat IPC: 1.24693 cumulative IPC: 0.612158 (Simulation time: 0 hr 55 min 7 sec) 
Heartbeat CPU 0 instructions: 580000004 cycles: 252898203 heartbeat IPC: 1.28106 cumulative IPC: 0.654902 (Simulation time: 0 hr 56 min 38 sec) 
Heartbeat CPU 0 instructions: 590000000 cycles: 260760576 heartbeat IPC: 1.27188 cumulative IPC: 0.692212 (Simulation time: 0 hr 58 min 28 sec) 
Heartbeat CPU 0 instructions: 600000003 cycles: 268584544 heartbeat IPC: 1.27812 cumulative IPC: 0.725468 (Simulation time: 1 hr 0 min 14 sec) 
Heartbeat CPU 0 instructions: 610000003 cycles: 286047066 heartbeat IPC: 0.572655 cumulative IPC: 0.708286 (Simulation time: 1 hr 3 min 21 sec) 
Heartbeat CPU 0 instructions: 620000001 cycles: 296209870 heartbeat IPC: 0.98398 cumulative IPC: 0.725219 (Simulation time: 1 hr 4 min 59 sec) 
Heartbeat CPU 0 instructions: 630000003 cycles: 305722615 heartbeat IPC: 1.05122 cumulative IPC: 0.742942 (Simulation time: 1 hr 6 min 29 sec) 
Heartbeat CPU 0 instructions: 640000002 cycles: 314118314 heartbeat IPC: 1.19109 cumulative IPC: 0.76346 (Simulation time: 1 hr 8 min 25 sec) 
Heartbeat CPU 0 instructions: 650000003 cycles: 322724497 heartbeat IPC: 1.16196 cumulative IPC: 0.781324 (Simulation time: 1 hr 10 min 34 sec) 
Heartbeat CPU 0 instructions: 660000002 cycles: 333184971 heartbeat IPC: 0.95598 cumulative IPC: 0.790348 (Simulation time: 1 hr 13 min 2 sec) 
Heartbeat CPU 0 instructions: 670000003 cycles: 341541322 heartbeat IPC: 1.19669 cumulative IPC: 0.806456 (Simulation time: 1 hr 14 min 41 sec) 
Heartbeat CPU 0 instructions: 680000003 cycles: 350483065 heartbeat IPC: 1.11835 cumulative IPC: 0.819148 (Simulation time: 1 hr 16 min 29 sec) 
Heartbeat CPU 0 instructions: 690000000 cycles: 359230292 heartbeat IPC: 1.14322 cumulative IPC: 0.831555 (Simulation time: 1 hr 18 min 32 sec) 
Heartbeat CPU 0 instructions: 700000001 cycles: 367752102 heartbeat IPC: 1.17346 cumulative IPC: 0.843848 (Simulation time: 1 hr 19 min 59 sec) 
Heartbeat CPU 0 instructions: 710000004 cycles: 376395823 heartbeat IPC: 1.15691 cumulative IPC: 0.854864 (Simulation time: 1 hr 21 min 34 sec) 
Heartbeat CPU 0 instructions: 720000004 cycles: 386474530 heartbeat IPC: 0.992191 cumulative IPC: 0.860276 (Simulation time: 1 hr 23 min 22 sec) 
Heartbeat CPU 0 instructions: 730000004 cycles: 394883923 heartbeat IPC: 1.18915 cumulative IPC: 0.870746 (Simulation time: 1 hr 25 min 9 sec) 
Heartbeat CPU 0 instructions: 740000001 cycles: 403902282 heartbeat IPC: 1.10885 cumulative IPC: 0.878607 (Simulation time: 1 hr 26 min 29 sec) 
Heartbeat CPU 0 instructions: 750000002 cycles: 412712798 heartbeat IPC: 1.13501 cumulative IPC: 0.886618 (Simulation time: 1 hr 28 min 5 sec) 
Heartbeat CPU 0 instructions: 760000003 cycles: 421359316 heartbeat IPC: 1.15654 cumulative IPC: 0.894649 (Simulation time: 1 hr 29 min 55 sec) 
Heartbeat CPU 0 instructions: 770000002 cycles: 430063278 heartbeat IPC: 1.1489 cumulative IPC: 0.902043 (Simulation time: 1 hr 31 min 19 sec) 
Heartbeat CPU 0 instructions: 780000003 cycles: 440482137 heartbeat IPC: 0.959798 cumulative IPC: 0.903985 (Simulation time: 1 hr 32 min 59 sec) 
Heartbeat CPU 0 instructions: 790000003 cycles: 448890169 heartbeat IPC: 1.18934 cumulative IPC: 0.911527 (Simulation time: 1 hr 34 min 40 sec) 
Heartbeat CPU 0 instructions: 800000002 cycles: 457980490 heartbeat IPC: 1.10007 cumulative IPC: 0.916764 (Simulation time: 1 hr 36 min 15 sec) 
Heartbeat CPU 0 instructions: 810000002 cycles: 466843572 heartbeat IPC: 1.12828 cumulative IPC: 0.922342 (Simulation time: 1 hr 38 min 6 sec) 
Heartbeat CPU 0 instructions: 820000004 cycles: 475445630 heartbeat IPC: 1.16251 cumulative IPC: 0.928335 (Simulation time: 1 hr 39 min 44 sec) 
Heartbeat CPU 0 instructions: 830000004 cycles: 511005088 heartbeat IPC: 0.281219 cumulative IPC: 0.867822 (Simulation time: 1 hr 44 min 19 sec) 
Heartbeat CPU 0 instructions: 840000000 cycles: 517227813 heartbeat IPC: 1.60701 cumulative IPC: 0.879723 (Simulation time: 1 hr 45 min 19 sec) 
Heartbeat CPU 0 instructions: 850000000 cycles: 523606577 heartbeat IPC: 1.5677 cumulative IPC: 0.890894 (Simulation time: 1 hr 46 min 44 sec) 
Heartbeat CPU 0 instructions: 860000001 cycles: 530086095 heartbeat IPC: 1.54332 cumulative IPC: 0.901479 (Simulation time: 1 hr 47 min 45 sec) 
Heartbeat CPU 0 instructions: 870000004 cycles: 536488469 heartbeat IPC: 1.56192 cumulative IPC: 0.911901 (Simulation time: 1 hr 49 min 29 sec) 
Heartbeat CPU 0 instructions: 880000002 cycles: 542860226 heartbeat IPC: 1.56943 cumulative IPC: 0.922067 (Simulation time: 1 hr 51 min 9 sec) 
Heartbeat CPU 0 instructions: 890000001 cycles: 549303457 heartbeat IPC: 1.55202 cumulative IPC: 0.931764 (Simulation time: 1 hr 52 min 54 sec) 
Heartbeat CPU 0 instructions: 900000000 cycles: 555685766 heartbeat IPC: 1.56683 cumulative IPC: 0.941302 (Simulation time: 1 hr 54 min 44 sec) 
Heartbeat CPU 0 instructions: 910000002 cycles: 562168908 heartbeat IPC: 1.54246 cumulative IPC: 0.950336 (Simulation time: 1 hr 56 min 34 sec) 
Heartbeat CPU 0 instructions: 920000001 cycles: 568601766 heartbeat IPC: 1.55452 cumulative IPC: 0.959212 (Simulation time: 1 hr 58 min 23 sec) 
Heartbeat CPU 0 instructions: 930000003 cycles: 575061232 heartbeat IPC: 1.54812 cumulative IPC: 0.967774 (Simulation time: 2 hr 0 min 12 sec) 
Heartbeat CPU 0 instructions: 940000003 cycles: 581411992 heartbeat IPC: 1.57461 cumulative IPC: 0.976325 (Simulation time: 2 hr 1 min 18 sec) 
Heartbeat CPU 0 instructions: 950000004 cycles: 623068901 heartbeat IPC: 0.240056 cumulative IPC: 0.914028 (Simulation time: 2 hr 4 min 37 sec) 
Heartbeat CPU 0 instructions: 960000003 cycles: 630540863 heartbeat IPC: 1.33834 cumulative IPC: 0.920371 (Simulation time: 2 hr 6 min 9 sec) 
Heartbeat CPU 0 instructions: 970000000 cycles: 637529303 heartbeat IPC: 1.43093 cumulative IPC: 0.927412 (Simulation time: 2 hr 7 min 19 sec) 
Heartbeat CPU 0 instructions: 980000002 cycles: 645516954 heartbeat IPC: 1.25193 cumulative IPC: 0.932447 (Simulation time: 2 hr 8 min 31 sec) 
Heartbeat CPU 0 instructions: 990000000 cycles: 653479630 heartbeat IPC: 1.25586 cumulative IPC: 0.937374 (Simulation time: 2 hr 9 min 41 sec) 
Heartbeat CPU 0 instructions: 1000000001 cycles: 661735886 heartbeat IPC: 1.2112 cumulative IPC: 0.941631 (Simulation time: 2 hr 11 min 29 sec) 
Heartbeat CPU 0 instructions: 1010000001 cycles: 671735319 heartbeat IPC: 1.00006 cumulative IPC: 0.942711 (Simulation time: 2 hr 12 min 52 sec) 
Heartbeat CPU 0 instructions: 1020000002 cycles: 679051560 heartbeat IPC: 1.36682 cumulative IPC: 0.94837 (Simulation time: 2 hr 13 min 45 sec) 
Heartbeat CPU 0 instructions: 1030000002 cycles: 686177176 heartbeat IPC: 1.40339 cumulative IPC: 0.954208 (Simulation time: 2 hr 14 min 37 sec) 
Heartbeat CPU 0 instructions: 1040000003 cycles: 693431751 heartbeat IPC: 1.37844 cumulative IPC: 0.959677 (Simulation time: 2 hr 15 min 27 sec) 
Heartbeat CPU 0 instructions: 1050000000 cycles: 700964388 heartbeat IPC: 1.32756 cumulative IPC: 0.964537 (Simulation time: 2 hr 16 min 29 sec) 
Heartbeat CPU 0 instructions: 1060000003 cycles: 709564346 heartbeat IPC: 1.1628 cumulative IPC: 0.967483 (Simulation time: 2 hr 18 min 11 sec) 
Heartbeat CPU 0 instructions: 1070000003 cycles: 716056889 heartbeat IPC: 1.54023 cumulative IPC: 0.973836 (Simulation time: 2 hr 19 min 4 sec) 
Heartbeat CPU 0 instructions: 1080000002 cycles: 724499196 heartbeat IPC: 1.18451 cumulative IPC: 0.976831 (Simulation time: 2 hr 20 min 41 sec) 
Heartbeat CPU 0 instructions: 1090000000 cycles: 731578803 heartbeat IPC: 1.41251 cumulative IPC: 0.981965 (Simulation time: 2 hr 21 min 53 sec) 
Heartbeat CPU 0 instructions: 1100000002 cycles: 739759954 heartbeat IPC: 1.22232 cumulative IPC: 0.985194 (Simulation time: 2 hr 22 min 43 sec) 
Heartbeat CPU 0 instructions: 1110000003 cycles: 747957463 heartbeat IPC: 1.21988 cumulative IPC: 0.988311 (Simulation time: 2 hr 23 min 35 sec) 
Heartbeat CPU 0 instructions: 1120000003 cycles: 755164272 heartbeat IPC: 1.38758 cumulative IPC: 0.992919 (Simulation time: 2 hr 24 min 21 sec) 
Heartbeat CPU 0 instructions: 1130000002 cycles: 763236017 heartbeat IPC: 1.23889 cumulative IPC: 0.996058 (Simulation time: 2 hr 25 min 34 sec) 
Heartbeat CPU 0 instructions: 1140000001 cycles: 770585532 heartbeat IPC: 1.36063 cumulative IPC: 1.00025 (Simulation time: 2 hr 26 min 29 sec) 
Heartbeat CPU 0 instructions: 1150000000 cycles: 778461309 heartbeat IPC: 1.26972 cumulative IPC: 1.00352 (Simulation time: 2 hr 27 min 18 sec) 
Heartbeat CPU 0 instructions: 1160000000 cycles: 786331136 heartbeat IPC: 1.27068 cumulative IPC: 1.00673 (Simulation time: 2 hr 28 min 19 sec) 
Heartbeat CPU 0 instructions: 1170000000 cycles: 794778959 heartbeat IPC: 1.18374 cumulative IPC: 1.00898 (Simulation time: 2 hr 29 min 22 sec) 
Heartbeat CPU 0 instructions: 1180000002 cycles: 802129107 heartbeat IPC: 1.36052 cumulative IPC: 1.01283 (Simulation time: 2 hr 30 min 6 sec) 
Heartbeat CPU 0 instructions: 1190000001 cycles: 810260055 heartbeat IPC: 1.22987 cumulative IPC: 1.01543 (Simulation time: 2 hr 30 min 57 sec) 
Heartbeat CPU 0 instructions: 1200000003 cycles: 817932972 heartbeat IPC: 1.30329 cumulative IPC: 1.01864 (Simulation time: 2 hr 31 min 40 sec) 
Heartbeat CPU 0 instructions: 1210000001 cycles: 826392091 heartbeat IPC: 1.18216 cumulative IPC: 1.02063 (Simulation time: 2 hr 32 min 33 sec) 
Heartbeat CPU 0 instructions: 1220000003 cycles: 834875624 heartbeat IPC: 1.17875 cumulative IPC: 1.02253 (Simulation time: 2 hr 33 min 30 sec) 
Heartbeat CPU 0 instructions: 1230000003 cycles: 842465148 heartbeat IPC: 1.31761 cumulative IPC: 1.02568 (Simulation time: 2 hr 34 min 55 sec) 
Heartbeat CPU 0 instructions: 1240000000 cycles: 850797027 heartbeat IPC: 1.20021 cumulative IPC: 1.0277 (Simulation time: 2 hr 36 min 16 sec) 
Heartbeat CPU 0 instructions: 1250000000 cycles: 858906988 heartbeat IPC: 1.23305 cumulative IPC: 1.02999 (Simulation time: 2 hr 37 min 2 sec) 
Heartbeat CPU 0 instructions: 1260000003 cycles: 867227607 heartbeat IPC: 1.20183 cumulative IPC: 1.03193 (Simulation time: 2 hr 37 min 50 sec) 
Heartbeat CPU 0 instructions: 1270000001 cycles: 875340455 heartbeat IPC: 1.23261 cumulative IPC: 1.03412 (Simulation time: 2 hr 38 min 42 sec) 
Heartbeat CPU 0 instructions: 1280000000 cycles: 884318652 heartbeat IPC: 1.11381 cumulative IPC: 1.03506 (Simulation time: 2 hr 39 min 34 sec) 
Heartbeat CPU 0 instructions: 1290000000 cycles: 892202896 heartbeat IPC: 1.26835 cumulative IPC: 1.03748 (Simulation time: 2 hr 40 min 19 sec) 
Heartbeat CPU 0 instructions: 1300000000 cycles: 900780614 heartbeat IPC: 1.16581 cumulative IPC: 1.03891 (Simulation time: 2 hr 41 min 11 sec) 
Heartbeat CPU 0 instructions: 1310000003 cycles: 909225002 heartbeat IPC: 1.18422 cumulative IPC: 1.04049 (Simulation time: 2 hr 41 min 57 sec) 
Heartbeat CPU 0 instructions: 1320000002 cycles: 917789237 heartbeat IPC: 1.16765 cumulative IPC: 1.04187 (Simulation time: 2 hr 42 min 50 sec) 
Heartbeat CPU 0 instructions: 1330000000 cycles: 926638830 heartbeat IPC: 1.13 cumulative IPC: 1.04285 (Simulation time: 2 hr 43 min 38 sec) 
Heartbeat CPU 0 instructions: 1340000002 cycles: 934553738 heartbeat IPC: 1.26344 cumulative IPC: 1.04502 (Simulation time: 2 hr 44 min 24 sec) 
Heartbeat CPU 0 instructions: 1350000000 cycles: 943115995 heartbeat IPC: 1.16792 cumulative IPC: 1.04632 (Simulation time: 2 hr 45 min 12 sec) 
Heartbeat CPU 0 instructions: 1360000003 cycles: 951642552 heartbeat IPC: 1.17281 cumulative IPC: 1.04763 (Simulation time: 2 hr 46 min 0 sec) 
Heartbeat CPU 0 instructions: 1370000001 cycles: 960693211 heartbeat IPC: 1.10489 cumulative IPC: 1.04826 (Simulation time: 2 hr 46 min 52 sec) 
Heartbeat CPU 0 instructions: 1380000000 cycles: 968507364 heartbeat IPC: 1.27973 cumulative IPC: 1.05041 (Simulation time: 2 hr 47 min 34 sec) 
Heartbeat CPU 0 instructions: 1390000003 cycles: 977429715 heartbeat IPC: 1.12078 cumulative IPC: 1.05116 (Simulation time: 2 hr 48 min 25 sec) 
Heartbeat CPU 0 instructions: 1400000002 cycles: 985591678 heartbeat IPC: 1.2252 cumulative IPC: 1.05282 (Simulation time: 2 hr 49 min 9 sec) 
Heartbeat CPU 0 instructions: 1410000004 cycles: 994198204 heartbeat IPC: 1.16191 cumulative IPC: 1.0539 (Simulation time: 2 hr 50 min 0 sec) 
Heartbeat CPU 0 instructions: 1420000004 cycles: 1003230071 heartbeat IPC: 1.10719 cumulative IPC: 1.05446 (Simulation time: 2 hr 50 min 50 sec) 
Heartbeat CPU 0 instructions: 1430000004 cycles: 1011167920 heartbeat IPC: 1.25979 cumulative IPC: 1.05631 (Simulation time: 2 hr 51 min 57 sec) 
Heartbeat CPU 0 instructions: 1440000003 cycles: 1019853629 heartbeat IPC: 1.15132 cumulative IPC: 1.05724 (Simulation time: 2 hr 52 min 47 sec) 
Heartbeat CPU 0 instructions: 1450000000 cycles: 1027874850 heartbeat IPC: 1.24669 cumulative IPC: 1.05893 (Simulation time: 2 hr 53 min 38 sec) 
Heartbeat CPU 0 instructions: 1460000000 cycles: 1062895589 heartbeat IPC: 0.285545 cumulative IPC: 1.02987 (Simulation time: 2 hr 57 min 7 sec) 
Heartbeat CPU 0 instructions: 1470000002 cycles: 1069145088 heartbeat IPC: 1.60013 cumulative IPC: 1.03367 (Simulation time: 2 hr 58 min 5 sec) 
Heartbeat CPU 0 instructions: 1480000001 cycles: 1075574318 heartbeat IPC: 1.5554 cumulative IPC: 1.03722 (Simulation time: 2 hr 59 min 4 sec) 
Heartbeat CPU 0 instructions: 1490000001 cycles: 1081961687 heartbeat IPC: 1.56559 cumulative IPC: 1.04077 (Simulation time: 3 hr 0 min 4 sec) 
Heartbeat CPU 0 instructions: 1500000000 cycles: 1088344423 heartbeat IPC: 1.56673 cumulative IPC: 1.04428 (Simulation time: 3 hr 1 min 4 sec) 
Heartbeat CPU 0 instructions: 1510000002 cycles: 1094780581 heartbeat IPC: 1.55372 cumulative IPC: 1.04768 (Simulation time: 3 hr 2 min 9 sec) 
Heartbeat CPU 0 instructions: 1520000000 cycles: 1101174953 heartbeat IPC: 1.56387 cumulative IPC: 1.05108 (Simulation time: 3 hr 3 min 16 sec) 
Heartbeat CPU 0 instructions: 1530000004 cycles: 1107580932 heartbeat IPC: 1.56104 cumulative IPC: 1.05442 (Simulation time: 3 hr 4 min 20 sec) 
Heartbeat CPU 0 instructions: 1540000003 cycles: 1114121540 heartbeat IPC: 1.52891 cumulative IPC: 1.05758 (Simulation time: 3 hr 5 min 24 sec) 
Heartbeat CPU 0 instructions: 1550000001 cycles: 1120519356 heartbeat IPC: 1.56303 cumulative IPC: 1.06085 (Simulation time: 3 hr 6 min 24 sec) 
Heartbeat CPU 0 instructions: 1560000002 cycles: 1126906242 heartbeat IPC: 1.56571 cumulative IPC: 1.06408 (Simulation time: 3 hr 7 min 24 sec) 
Heartbeat CPU 0 instructions: 1570000000 cycles: 1133282043 heartbeat IPC: 1.56843 cumulative IPC: 1.06729 (Simulation time: 3 hr 8 min 24 sec) 
Heartbeat CPU 0 instructions: 1580000004 cycles: 1177887923 heartbeat IPC: 0.224186 cumulative IPC: 1.03138 (Simulation time: 3 hr 11 min 44 sec) 
Heartbeat CPU 0 instructions: 1590000003 cycles: 1191944253 heartbeat IPC: 0.711423 cumulative IPC: 1.02714 (Simulation time: 3 hr 13 min 1 sec) 
Heartbeat CPU 0 instructions: 1600000003 cycles: 1211739812 heartbeat IPC: 0.505164 cumulative IPC: 1.01758 (Simulation time: 3 hr 15 min 6 sec) 
Heartbeat CPU 0 instructions: 1610000000 cycles: 1222420412 heartbeat IPC: 0.936277 cumulative IPC: 1.01678 (Simulation time: 3 hr 16 min 37 sec) 
Heartbeat CPU 0 instructions: 1620000003 cycles: 1232204200 heartbeat IPC: 1.0221 cumulative IPC: 1.01683 (Simulation time: 3 hr 17 min 59 sec) 
Heartbeat CPU 0 instructions: 1630000001 cycles: 1239908357 heartbeat IPC: 1.298 cumulative IPC: 1.01878 (Simulation time: 3 hr 19 min 7 sec) 
Heartbeat CPU 0 instructions: 1640000001 cycles: 1247735306 heartbeat IPC: 1.27764 cumulative IPC: 1.0206 (Simulation time: 3 hr 20 min 14 sec) 
Heartbeat CPU 0 instructions: 1650000002 cycles: 1255828421 heartbeat IPC: 1.23562 cumulative IPC: 1.02214 (Simulation time: 3 hr 21 min 24 sec) 
Heartbeat CPU 0 instructions: 1660000002 cycles: 1263387484 heartbeat IPC: 1.32292 cumulative IPC: 1.02415 (Simulation time: 3 hr 22 min 29 sec) 
Heartbeat CPU 0 instructions: 1670000003 cycles: 1272273658 heartbeat IPC: 1.12534 cumulative IPC: 1.02494 (Simulation time: 3 hr 23 min 43 sec) 
Heartbeat CPU 0 instructions: 1680000003 cycles: 1292417875 heartbeat IPC: 0.49642 cumulative IPC: 1.01577 (Simulation time: 3 hr 26 min 11 sec) 
Heartbeat CPU 0 instructions: 1690000000 cycles: 1302520874 heartbeat IPC: 0.989805 cumulative IPC: 1.01555 (Simulation time: 3 hr 27 min 30 sec) 
Heartbeat CPU 0 instructions: 1700000001 cycles: 1311932198 heartbeat IPC: 1.06255 cumulative IPC: 1.01592 (Simulation time: 3 hr 28 min 48 sec) 
Heartbeat CPU 0 instructions: 1710000002 cycles: 1320537035 heartbeat IPC: 1.16214 cumulative IPC: 1.01698 (Simulation time: 3 hr 30 min 0 sec) 
Heartbeat CPU 0 instructions: 1720000000 cycles: 1329112171 heartbeat IPC: 1.16616 cumulative IPC: 1.01805 (Simulation time: 3 hr 31 min 9 sec) 
Heartbeat CPU 0 instructions: 1730000002 cycles: 1338809980 heartbeat IPC: 1.03116 cumulative IPC: 1.01816 (Simulation time: 3 hr 32 min 22 sec) 
Heartbeat CPU 0 instructions: 1740000001 cycles: 1348152643 heartbeat IPC: 1.07036 cumulative IPC: 1.01856 (Simulation time: 3 hr 33 min 35 sec) 
Heartbeat CPU 0 instructions: 1750000004 cycles: 1356846086 heartbeat IPC: 1.15029 cumulative IPC: 1.01949 (Simulation time: 3 hr 34 min 44 sec) 
Heartbeat CPU 0 instructions: 1760000004 cycles: 1365515946 heartbeat IPC: 1.15342 cumulative IPC: 1.02043 (Simulation time: 3 hr 35 min 52 sec) 
Heartbeat CPU 0 instructions: 1770000003 cycles: 1374258127 heartbeat IPC: 1.14388 cumulative IPC: 1.0213 (Simulation time: 3 hr 37 min 1 sec) 
Heartbeat CPU 0 instructions: 1780000002 cycles: 1382843696 heartbeat IPC: 1.16475 cumulative IPC: 1.02228 (Simulation time: 3 hr 38 min 8 sec) 
Heartbeat CPU 0 instructions: 1790000000 cycles: 1392199674 heartbeat IPC: 1.06884 cumulative IPC: 1.02263 (Simulation time: 3 hr 39 min 19 sec) 
Heartbeat CPU 0 instructions: 1800000002 cycles: 1401506962 heartbeat IPC: 1.07443 cumulative IPC: 1.02301 (Simulation time: 3 hr 40 min 33 sec) 
Heartbeat CPU 0 instructions: 1810000000 cycles: 1410240989 heartbeat IPC: 1.14495 cumulative IPC: 1.02384 (Simulation time: 3 hr 41 min 44 sec) 
Heartbeat CPU 0 instructions: 1820000000 cycles: 1419000295 heartbeat IPC: 1.14164 cumulative IPC: 1.02464 (Simulation time: 3 hr 42 min 54 sec) 
Heartbeat CPU 0 instructions: 1830000002 cycles: 1427794204 heartbeat IPC: 1.13715 cumulative IPC: 1.0254 (Simulation time: 3 hr 44 min 4 sec) 
Heartbeat CPU 0 instructions: 1840000001 cycles: 1436433792 heartbeat IPC: 1.15746 cumulative IPC: 1.02628 (Simulation time: 3 hr 45 min 11 sec) 
Heartbeat CPU 0 instructions: 1850000001 cycles: 1446175288 heartbeat IPC: 1.02654 cumulative IPC: 1.02628 (Simulation time: 3 hr 46 min 23 sec) 
Heartbeat CPU 0 instructions: 1860000001 cycles: 1455488131 heartbeat IPC: 1.07379 cumulative IPC: 1.02661 (Simulation time: 3 hr 47 min 34 sec) 
Heartbeat CPU 0 instructions: 1870000002 cycles: 1464309650 heartbeat IPC: 1.13359 cumulative IPC: 1.02732 (Simulation time: 3 hr 48 min 43 sec) 
Heartbeat CPU 0 instructions: 1880000004 cycles: 1473122583 heartbeat IPC: 1.1347 cumulative IPC: 1.02802 (Simulation time: 3 hr 49 min 51 sec) 
Heartbeat CPU 0 instructions: 1890000002 cycles: 1481904735 heartbeat IPC: 1.13867 cumulative IPC: 1.02874 (Simulation time: 3 hr 50 min 59 sec) 
Heartbeat CPU 0 instructions: 1900000002 cycles: 1517523567 heartbeat IPC: 0.28075 cumulative IPC: 1.00953 (Simulation time: 3 hr 53 min 47 sec) 
Heartbeat CPU 0 instructions: 1910000002 cycles: 1523781369 heartbeat IPC: 1.59801 cumulative IPC: 1.01218 (Simulation time: 3 hr 54 min 46 sec) 
Heartbeat CPU 0 instructions: 1920000002 cycles: 1530217906 heartbeat IPC: 1.55363 cumulative IPC: 1.01467 (Simulation time: 3 hr 55 min 45 sec) 
Heartbeat CPU 0 instructions: 1930000001 cycles: 1536583110 heartbeat IPC: 1.57104 cumulative IPC: 1.01719 (Simulation time: 3 hr 56 min 44 sec) 
Heartbeat CPU 0 instructions: 1940000002 cycles: 1542968485 heartbeat IPC: 1.56608 cumulative IPC: 1.01967 (Simulation time: 3 hr 57 min 44 sec) 
Heartbeat CPU 0 instructions: 1950000000 cycles: 1549339959 heartbeat IPC: 1.5695 cumulative IPC: 1.02214 (Simulation time: 3 hr 58 min 44 sec) 
Heartbeat CPU 0 instructions: 1960000002 cycles: 1555743295 heartbeat IPC: 1.56169 cumulative IPC: 1.02456 (Simulation time: 3 hr 59 min 44 sec) 
Heartbeat CPU 0 instructions: 1970000003 cycles: 1562198404 heartbeat IPC: 1.54916 cumulative IPC: 1.02693 (Simulation time: 4 hr 0 min 43 sec) 
Heartbeat CPU 0 instructions: 1980000004 cycles: 1568646073 heartbeat IPC: 1.55095 cumulative IPC: 1.02928 (Simulation time: 4 hr 1 min 42 sec) 
Heartbeat CPU 0 instructions: 1990000002 cycles: 1575071243 heartbeat IPC: 1.55638 cumulative IPC: 1.03162 (Simulation time: 4 hr 2 min 42 sec) 
*** Reached end of trace: traces/627.cam4_s-490B.champsimtrace.xz
Heartbeat CPU 0 instructions: 2000000001 cycles: 1581460750 heartbeat IPC: 1.56507 cumulative IPC: 1.03397 (Simulation time: 4 hr 3 min 42 sec) 
Finished CPU 0 instructions: 1500000001 cycles: 1450718373 cumulative IPC: 1.03397 (Simulation time: 4 hr 3 min 42 sec) 

ChampSim completed all CPUs

Region of Interest Statistics

CPU 0 cumulative IPC: 1.03397 instructions: 1500000001 cycles: 1450718373
cpu0_DTLB TOTAL     ACCESS:  262441454  HIT:  261885759  MISS:     555695
cpu0_DTLB LOAD      ACCESS:  185036628  HIT:  184681209  MISS:     355419
cpu0_DTLB RFO       ACCESS:   77404826  HIT:   77204550  MISS:     200276
cpu0_DTLB PREFETCH  ACCESS:          0  HIT:          0  MISS:          0
cpu0_DTLB WRITEBACK ACCESS:          0  HIT:          0  MISS:          0
cpu0_DTLB TRANSLATION ACCESS:          0  HIT:          0  MISS:          0
cpu0_DTLB PREFETCH  REQUESTED:          0  ISSUED:          0  USEFUL:          0  USELESS:          0
cpu0_DTLB AVERAGE MISS LATENCY: 20.3141 cycles
cpu0_ITLB TOTAL     ACCESS:   74289216  HIT:   74289135  MISS:         81
cpu0_ITLB LOAD      ACCESS:   74289216  HIT:   74289135  MISS:         81
cpu0_ITLB RFO       ACCESS:          0  HIT:          0  MISS:          0
cpu0_ITLB PREFETCH  ACCESS:          0  HIT:          0  MISS:          0
cpu0_ITLB WRITEBACK ACCESS:          0  HIT:          0  MISS:          0
cpu0_ITLB TRANSLATION ACCESS:          0  HIT:          0  MISS:          0
cpu0_ITLB PREFETCH  REQUESTED:          0  ISSUED:          0  USEFUL:          0  USELESS:          0
cpu0_ITLB AVERAGE MISS LATENCY: 133.247 cycles
cpu0_L1I TOTAL     ACCESS:   39925525  HIT:   39880542  MISS:      44983
cpu0_L1I LOAD      ACCESS:   39925525  HIT:   39880542  MISS:      44983
cpu0_L1I RFO       ACCESS:          0  HIT:          0  MISS:          0
cpu0_L1I PREFETCH  ACCESS:          0  HIT:          0  MISS:          0
cpu0_L1I WRITEBACK ACCESS:          0  HIT:          0  MISS:          0
cpu0_L1I TRANSLATION ACCESS:          0  HIT:          0  MISS:          0
cpu0_L1I PREFETCH  REQUESTED:          0  ISSUED:          0  USEFUL:          0  USELESS:          0
cpu0_L1I AVERAGE MISS LATENCY: 344.241 cycles
cpu0_STLB TOTAL     ACCESS:     555776  HIT:     462499  MISS:      93277
cpu0_STLB LOAD      ACCESS:     355500  HIT:     296980  MISS:      58520
cpu0_STLB RFO       ACCESS:     200276  HIT:     165519  MISS:      34757
cpu0_STLB PREFETCH  ACCESS:          0  HIT:          0  MISS:          0
cpu0_STLB WRITEBACK ACCESS:          0  HIT:          0  MISS:          0
cpu0_STLB TRANSLATION ACCESS:          0  HIT:          0  MISS:          0
cpu0_STLB PREFETCH  REQUESTED:          0  ISSUED:          0  USEFUL:          0  USELESS:          0
cpu0_STLB AVERAGE MISS LATENCY: 67.4648 cycles
cpu0_L1D TOTAL     ACCESS:  246040295  HIT:  209616035  MISS:   36424260
cpu0_L1D LOAD      ACCESS:  153220554  HIT:  130527153  MISS:   22693401
cpu0_L1D RFO       ACCESS:   92727435  HIT:   78999314  MISS:   13728121
cpu0_L1D PREFETCH  ACCESS:          0  HIT:          0  MISS:          0
cpu0_L1D WRITEBACK ACCESS:          0  HIT:          0  MISS:          0
cpu0_L1D TRANSLATION ACCESS:      92306  HIT:      89568  MISS:       2738
cpu0_L1D PREFETCH  REQUESTED:          0  ISSUED:          0  USEFUL:          0  USELESS:          0
cpu0_L1D AVERAGE MISS LATENCY: 166.542 cycles
cpu0_L2C TOTAL     ACCESS:   52501689  HIT:   31767604  MISS:   20734085
cpu0_L2C LOAD      ACCESS:   22737146  HIT:   11021431  MISS:   11715715
cpu0_L2C RFO       ACCESS:   13727535  HIT:    4715893  MISS:    9011642
cpu0_L2C PREFETCH  ACCESS:          0  HIT:          0  MISS:          0
cpu0_L2C WRITEBACK ACCESS:   16034270  HIT:   16029423  MISS:       4847
cpu0_L2C TRANSLATION ACCESS:       2738  HIT:        857  MISS:       1881
cpu0_L2C PREFETCH  REQUESTED:          0  ISSUED:          0  USEFUL:          0  USELESS:          0
cpu0_L2C AVERAGE MISS LATENCY: 273.854 cycles
LLC TOTAL     ACCESS:   31173259  HIT:   21189128  MISS:    9984131
LLC LOAD      ACCESS:   11715417  HIT:    7012020  MISS:    4703397
LLC RFO       ACCESS:    9011480  HIT:    3740377  MISS:    5271103
LLC PREFETCH  ACCESS:          0  HIT:          0  MISS:          0
LLC WRITEBACK ACCESS:   10444481  HIT:   10435651  MISS:       8830
LLC TRANSLATION ACCESS:       1881  HIT:       1080  MISS:        801
LLC PREFETCH  REQUESTED:          0  ISSUED:          0  USEFUL:          0  USELESS:          0
LLC AVERAGE MISS LATENCY: 525.106 cycles
~~~~~~~~~~Reuse Distance Profiler output~~~~~~~~~~
0	48040976	16525328
1	46479248	23119936
2	29100160	20197504
3	21372640	14696496
4	23482608	19255360
5	13064928	10544288
6	18064912	10887200
7	4658800	3911312
8	4138208	3244000
9	2915168	2441424
10	2571984	2130688
11	1202496	944112
12	977632	775936
13	1677168	587264
14	2013488	512384
15	1401232	456080
16	1531808	1438992
17	1083696	990912
18	512592	418592
19	1214384	1135120
20	366720	283360
21	217648	137904
22	165584	107920
23	444464	99120
24	314112	103696
25	950736	900272
26	476000	423616
27	842160	569168
28	822992	75744
29	123280	75936
30	130624	96960
31	584576	554816
32	1779360	1728176
33	210224	87440
34	406992	131504
35	762416	61392
36	445648	290320
37	134288	88784
38	323040	54176
39	765200	54896
40	210608	62016
41	470128	361456
42	917104	758320
43	236752	140960
44	292368	186592
45	1108768	1024640
46	243520	108128
47	509488	353904
48	673728	464256
49	1527504	449984
50	541072	315520
51	347920	265600
52	1368320	1181328
53	3685344	3539552
54	8970976	8256896
55	1386160	1317648
56	194784	182880
57	113120	100288
58	91024	79504
59	81888	70064
60	61072	51840
61	58480	49216
62	50592	42608
63	49840	40992
64	87408	70160
66	79616	62096
68	74672	58816
70	73584	56432
72	80224	65776
74	77520	60656
76	92576	77104
78	101328	88096
80	84016	72128
82	103200	83376
84	76688	51008
86	60384	52288
88	54528	51056
90	59696	56560
92	61584	59424
94	74928	73152
96	76656	75136
98	82528	81776
100	83712	82256
102	80176	79184
104	77072	75888
106	84272	83488
108	93296	91648
110	85248	83520
112	174080	172880
114	84528	83248
116	77536	76448
118	74528	73232
120	69936	68688
122	58736	57136
124	52496	51440
126	51184	50048
128	112528	108800
132	110944	103312
136	139568	133920
140	141600	135536
144	172752	149808
148	195424	187664
152	207680	201584
156	197280	188512
160	193728	174736
164	170512	164352
168	158704	153952
172	132656	126352
176	133760	124432
180	118160	111024
184	128912	122400
188	140896	134160
192	142608	126400
196	136768	123440
200	144208	128800
204	154112	147968
208	155360	147728
212	159584	148656
216	177712	163456
220	125200	119024
224	116736	100432
228	108672	99696
232	126832	103904
236	137616	105968
240	152240	122304
244	164912	132432
248	139984	125968
252	122272	108608
256	295984	261200
264	443280	364496
272	734352	555088
280	1095920	785728
288	1637616	1091664
296	1927504	1103216
304	1347840	837552
312	714064	524144
320	349408	323808
328	412640	408640
336	244160	240064
344	184704	180272
352	145520	141520
360	136400	130656
368	139872	131488
376	143360	133376
384	144896	132464
392	136912	123968
400	166240	152224
408	183888	166368
416	153728	137872
424	167408	145200
432	156064	133520
440	132704	103168
448	177600	143856
456	115728	77776
464	133600	92688
472	154000	101584
480	163968	105312
488	192848	121552
496	214032	129904
504	251696	142832
512	571520	344032
528	535680	331024
544	558576	351408
560	705424	445392
576	787024	507392
592	926528	586016
608	666048	444624
624	843408	523680
640	591488	414896
656	453760	354800
672	619968	585536
688	160032	127136
704	196192	159888
720	429568	275648
736	776480	405776
752	754096	420096
768	835920	433856
784	739888	391280
800	462192	267024
816	187312	146064
832	103088	94160
848	100960	96528
864	98128	93280
880	104304	98288
896	102016	96544
912	65760	59456
928	55248	48224
944	40656	32448
960	46336	39360
976	63648	56912
992	37584	32448
1008	32288	27808
1024	46496	38320
1056	58512	47632
1088	54544	40592
1120	65744	40240
1152	80112	46656
1184	82816	44832
1216	76048	36992
1248	75456	36432
1280	64304	26400
1312	68048	32208
1344	61088	22672
1376	56288	15216
1408	80960	17744
1440	92528	20704
1472	82256	23472
1504	71440	16480
1536	52016	13488
1568	45072	14896
1600	40928	15936
1632	47568	21312
1664	44496	16240
1696	46368	18672
1728	55200	21072
1760	68544	20288
1792	51984	23088
1824	55136	22512
1856	80368	28576
1888	60592	23200
1920	56640	25072
1952	53664	23328
1984	33104	16192
2016	35296	22160
2048	56912	28384
2112	66736	33904
2176	82224	37456
2240	95040	43568
2304	90416	41696
2368	70112	40976
2432	53872	38768
2496	43712	34144
2560	43392	34144
2624	41440	31968
2688	48496	39264
2752	53904	46960
2816	51456	44096
2880	32384	23120
2944	41120	31648
3008	43168	32240
3072	52272	41728
3136	66368	57904
3200	47296	36800
3264	45120	37776
3328	31648	24000
3392	28464	22784
3456	36832	30896
3520	31568	25920
3584	38560	28384
3648	50896	30736
3712	39456	30496
3776	42032	26944
3840	37120	28144
3904	29632	22624
3968	32352	24336
4032	32288	26496
4096	66272	54496
4224	66208	55264
4352	60384	47728
4480	61040	47248
4608	79040	53920
4736	81584	50080
4864	82912	53136
4992	90736	61744
5120	88432	59840
5248	81904	57392
5376	95968	67552
5504	84016	62032
5632	109264	72656
5760	115216	77584
5888	124048	73968
6016	122160	68864
6144	116752	66480
6272	113872	68192
6400	108480	69184
6528	120400	77680
6656	110848	73568
6784	111152	81312
6912	115024	77600
7040	111184	69584
7168	108144	72000
7296	113904	77792
7424	117136	74688
7552	110864	75360
7680	119888	87664
7808	135712	103920
7936	109376	78832
8064	114352	87360
8192	219728	157264
8448	234256	161040
8704	219824	151760
8960	214320	157632
9216	213744	157856
9472	251152	193248
9728	252704	179904
9984	257728	182768
10240	325728	248512
10496	313200	225216
10752	198720	135968
11008	232960	159792
11264	259136	181888
11520	216624	154672
11776	247344	178432
12032	221360	154048
12288	216048	147504
12544	215472	157648
12800	204880	135056
13056	202288	130144
13312	251152	130304
13568	231600	147904
13824	198192	134256
14080	189744	115280
14336	205104	126512
14592	187616	114528
14848	200224	125936
15104	185504	122128
15360	209472	116720
15616	249088	98816
15872	237840	106736
16128	174400	98576
16384	265312	166784
16896	214288	161872
17408	217856	144288
17920	225264	164288
18432	217744	185936
18944	217296	167360
19456	160592	129328
19968	148224	123312
20480	142096	125824
20992	146128	132784
21504	162048	123712
22016	170400	116592
22528	130912	107184
23040	105264	100080
23552	123632	120080
24064	99952	98384
24576	98560	96912
25088	111952	109856
25600	119648	117200
26112	132928	128928
26624	155552	142336
27136	178608	111552
27648	125024	92256
28160	125456	113872
28672	141056	117792
29184	113504	91552
29696	106336	90256
30208	106160	86704
30720	101184	86592
31232	95856	83488
31744	93792	84816
32256	136192	81712
32768	235520	172480
33792	194256	178288
34816	191552	178736
35840	196112	189472
36864	197008	190320
37888	188048	182432
38912	186064	170144
39936	213664	173472
40960	205872	165504
41984	172688	157744
43008	150000	144896
44032	131424	128560
45056	124224	122304
46080	126560	120144
47104	130432	117840
48128	126704	113200
49152	141792	122496
50176	145792	122944
51200	146880	117888
52224	148000	116704
53248	140480	111712
54272	133456	110352
55296	134448	114560
56320	132496	113008
57344	129744	97584
58368	153792	100848
59392	120112	102048
60416	124400	103248
61440	125104	102000
62464	127936	103888
63488	127664	103200
64512	130800	105200
65536	253088	196352
67584	218416	175136
69632	183488	155344
71680	173584	145472
73728	169232	148752
75776	147616	132976
77824	152928	133184
79872	128928	107840
81920	128288	103440
83968	117728	96160
86016	141536	110080
88064	113488	99120
90112	122784	108448
92160	114400	100384
94208	184288	170864
96256	95440	76400
98304	64544	42960
100352	47984	41488
102400	48800	41984
104448	50720	40944
106496	50080	37936
108544	49632	29664
110592	82688	66624
112640	97936	86048
114688	55584	41792
116736	51408	42688
118784	59520	49648
120832	61168	49088
122880	60992	51008
124928	62752	49984
126976	88208	62736
129024	145104	116080
131072	258800	187584
135168	159552	98704
139264	174736	111664
143360	176624	97504
147456	233056	81872
151552	220176	55152
155648	159248	48592
159744	101520	64240
163840	117264	83760
167936	65184	36592
172032	110032	77360
176128	187872	120032
180224	159408	72432
184320	154512	77536
188416	129744	58848
192512	134624	84640
196608	74848	57248
200704	143488	44960
204800	50928	36720
208896	80624	37552
212992	97392	43520
217088	96128	58720
221184	80960	60176
225280	221824	194224
229376	149888	114768
233472	151328	111088
237568	93184	53328
241664	202288	100656
245760	44032	21984
249856	51696	38224
253952	67024	53664
258048	121408	88912
262144	304656	183632
270336	187664	101056
278528	165072	119696
286720	176384	136768
294912	103040	45440
303104	53472	9248
311296	72960	40064
319488	94416	34336
327680	115632	39344
335872	142576	65952
344064	118672	48064
352256	139760	55744
360448	298416	122784
368640	204736	98896
376832	111952	76064
385024	140496	27808
393216	78464	37216
401408	60688	34976
409600	37920	13456
417792	64768	33216
425984	81200	36704
434176	111056	59264
442368	118448	62928
450560	263008	205376
458752	323248	230688
466944	148624	39168
475136	147344	83696
483328	87856	20816
491520	116704	9040
499712	110160	7376
507904	68848	7616
516096	60144	5440
524288	142864	37568
540672	134944	19008
557056	174160	103424
573440	89312	49136
589824	100656	68816
606208	164320	76576
622592	144736	25568
638976	174352	17712
655360	170128	9888
671744	65648	6032
688128	88800	19392
704512	93648	19088
720896	73296	8464
737280	78448	12736
753664	76288	5888
770048	143456	10672
786432	39664	19888
802816	101344	78704
819200	116608	95088
835584	69312	66192
851968	131664	128656
868352	117200	27072
884736	25936	14368
901120	28976	7648
917504	39776	2384
933888	41280	2784
950272	49616	9920
966656	24128	2288
983040	119280	3680
999424	72576	14560
1015808	44480	2880
1032192	51952	5376
1048576	211232	17696
1081344	64336	31072
1114112	135536	79584
1146880	158400	43952
1179648	39536	27152
1212416	137376	15968
1245184	128592	9040
1277952	186848	7968
1310720	30560	11664
1343488	48928	4400
1376256	40080	6720
1409024	105216	24928
1441792	62144	25680
1474560	48720	11376
1507328	29600	9312
1540096	25296	1216
1572864	119776	95552
1605632	10624	4736
1638400	17232	12768
1671168	30112	16736
1703936	89616	47552
1736704	68992	24096
1769472	67568	4800
1802240	11744	7792
1835008	6064	992
1867776	5024	784
1900544	17312	4384
1933312	27216	816
1966080	19008	4448
1998848	9808	4064
2031616	14176	7200
2064384	48128	43616
2097152	11392	1888
2162688	23568	8576
2228224	27472	5376
2293760	40752	5776
2359296	46224	15280
2424832	141856	44080
2490368	52544	8736
2555904	19248	16192
2621440	2272	1888
2686976	2336	1936
2752512	15888	15456
2818048	20656	19312
2883584	8320	5056
2949120	7936	5040
3014656	6832	5152
3080192	11472	1920
3145728	25136	8832
3211264	29248	12144
3276800	18768	2112
3342336	52896	13392
3407872	8864	5072
3473408	4224	3824
3538944	10848	10480
3604480	16096	15680
3670016	6464	5888
3735552	11744	7952
3801088	11920	9440
3866624	7552	6176
3932160	8304	7568
3997696	8736	8320
4063232	10544	10096
4128768	9792	7584
4194304	16624	11056
4325376	16880	15936
4456448	8400	7552
4587520	25632	20224
4718592	25680	23104
4849664	8640	7776
4980736	24160	20096
5111808	22480	17888
5242880	33968	32816
5373952	49120	45536
5505024	55936	50736
5636096	42400	41312
5767168	71760	69040
5898240	102240	96576
6029312	48160	46384
6160384	6272	5376
6291456	31808	26816
6422528	14640	11024
6553600	13088	11840
6684672	17744	13312
6815744	22400	18048
6946816	6928	6096
7077888	12608	8928
7208960	28048	22976
7340032	12512	11472
7471104	10304	8816
7602176	25696	19856
7733248	13936	11792
7864320	15648	14784
7995392	18672	14432
8126464	15376	11264
8257536	8976	8064
8388608	41088	32352
8650752	31296	27408
8912896	41584	34704
9175040	29104	22448
9437184	27872	24784
9699328	37136	28608
9961472	32752	27472
10223616	41120	35472
10485760	23568	15264
10747904	26128	23824
11010048	44048	36272
11272192	30208	25232
11534336	35472	29632
11796480	20112	11488
12058624	19168	17216
12320768	16624	14624
12582912	19664	17904
12845056	18160	16720
13107200	12896	11120
13369344	12384	10576
13631488	16784	14864
13893632	19216	17280
14155776	16272	14320
14417920	9360	7104
14680064	13072	11168
14942208	18672	16656
15204352	28208	26096
15466496	9008	7152
15728640	9344	7792
15990784	19216	17264
16252928	15856	13648
16515072	19952	17968
16777216	21312	17696
17301504	37328	33008
17825792	25936	21664
18350080	36032	32384
18874368	34352	30192
19398656	24144	19280
19922944	36832	33136
20447232	30976	27168
20971520	41488	36848
21495808	33632	28576
22020096	29056	24112
22544384	30944	26448
23068672	16832	12992
23592960	19120	16144
24117248	38816	35952
24641536	24576	21808
25165824	41696	38720
25690112	18784	16400
26214400	38672	36448
26738688	21296	18864
27262976	31792	29376
27787264	28416	25552
28311552	16112	13152
28835840	30080	26032
29360128	12080	9600
29884416	24992	20816
30408704	18784	16400
30932992	17664	15376
31457280	24864	20560
31981568	20384	17312
32505856	20944	18640
33030144	10912	6288
33554432	20544	13888
34603008	23232	17104
35651584	25696	16320
36700160	20992	15232
37748736	25328	17392
38797312	24352	16256
39845888	23248	15616
40894464	18928	12928
41943040	30752	21984
42991616	22784	19280
44040192	28736	24176
45088768	29728	25280
46137344	33728	29568
47185920	17296	15584
48234496	27408	21952
49283072	15744	13760
50331648	20672	16224
51380224	21808	17856
52428800	22192	18432
53477376	16976	13872
54525952	38608	21328
55574528	34176	14336
56623104	35552	17184
57671680	44032	11056
58720256	42672	16848
59768832	42096	13616
60817408	40976	11200
61865984	40080	12864
62914560	37008	10176
63963136	40032	10016
65011712	40368	13808
66060288	35072	8544
67108864	91792	38848
69206016	82336	43568
71303168	87856	39120
73400320	79984	31808
75497472	132032	33952
77594624	50384	30672
79691776	54992	31360
81788928	90464	28544
83886080	79120	27728
85983232	80384	40000
88080384	46160	26080
90177536	43152	24400
92274688	79712	15136
94371840	6832	6688
96468992	3024	2960
98566144	7312	7184
100663296	3520	3408
102760448	3504	3488
104857600	48	0
106954752	32	0
109051904	80	0
111149056	16	0
113246208	32	32
115343360	80	32
117440512	0	0
119537664	0	0
121634816	0	0
123731968	0	0
125829120	0	0
127926272	0	0
130023424	0	0
132120576	0	0
134217728	5504	16
138412032	17952	128
142606336	17680	0
146800640	19696	0
150994944	16048	0
155189248	33696	0
159383552	54368	0
163577856	50832	0
167772160	72896	7152
171966464	26656	26656
176160768	27040	27040
180355072	34512	34512
184549376	27728	27728
188743680	20640	20640
192937984	0	0
197132288	0	0
201326592	0	0
205520896	0	0
209715200	0	0
213909504	0	0
218103808	0	0
222298112	0	0
226492416	0	0
230686720	0	0
234881024	0	0
239075328	0	0
243269632	0	0
247463936	0	0
251658240	0	0
255852544	0	0
260046848	0	0
264241152	0	0
268435456	0	0
276824064	0	0
285212672	0	0
293601280	0	0
301989888	0	0
310378496	0	0
318767104	0	0
327155712	0	0
335544320	0	0
343932928	0	0
352321536	0	0
360710144	0	0
369098752	0	0
377487360	0	0
385875968	0	0
394264576	0	0
402653184	0	0
411041792	0	0
419430400	0	0
427819008	0	0
436207616	0	0
444596224	0	0
452984832	0	0
461373440	0	0
469762048	0	0
478150656	0	0
486539264	0	0
494927872	0	0
503316480	0	0
511705088	0	0
520093696	0	0
528482304	0	0
536870912	0	0
553648128	0	0
570425344	0	0
587202560	0	0
603979776	0	0
620756992	0	0
637534208	0	0
654311424	0	0
671088640	0	0
687865856	0	0
704643072	0	0
721420288	0	0
738197504	0	0
754974720	0	0
771751936	0	0
788529152	0	0
805306368	0	0
822083584	0	0
838860800	0	0
855638016	0	0
872415232	0	0
889192448	0	0
905969664	0	0
922746880	0	0
939524096	0	0
956301312	0	0
973078528	0	0
989855744	0	0
1006632960	0	0
1023410176	0	0
1040187392	0	0
1056964608	0	0
1073741824	0	0
1107296256	0	0
1140850688	0	0
1174405120	0	0
1207959552	0	0
1241513984	0	0
1275068416	0	0
1308622848	0	0
1342177280	0	0
1375731712	0	0
1409286144	0	0
1442840576	0	0
1476395008	0	0
1509949440	0	0
1543503872	0	0
1577058304	0	0
1610612736	0	0
1644167168	0	0
1677721600	0	0
1711276032	0	0
1744830464	0	0
1778384896	0	0
1811939328	0	0
1845493760	0	0
1879048192	0	0
1912602624	0	0
1946157056	0	0
1979711488	0	0
2013265920	0	0
2046820352	0	0
2080374784	0	0
2113929216	0	0
2147483648	0	0
2214592512	0	0
2281701376	0	0
2348810240	0	0
2415919104	0	0
2483027968	0	0
2550136832	0	0
2617245696	0	0
2684354560	0	0
2751463424	0	0
2818572288	0	0
2885681152	0	0
2952790016	0	0
3019898880	0	0
3087007744	0	0
3154116608	0	0
3221225472	0	0
3288334336	0	0
3355443200	0	0
3422552064	0	0
3489660928	0	0
3556769792	0	0
3623878656	0	0
3690987520	0	0
3758096384	0	0
3825205248	0	0
3892314112	0	0
3959422976	0	0
4026531840	0	0
4093640704	0	0
4160749568	0	0
4227858432	0	0
~~~~~~~~~~Reuse Distance Profiler output end~~~~~~~~~~

DRAM Statistics
 CHANNEL 0
 RQ ROW_BUFFER_HIT:    1766310  ROW_BUFFER_MISS:    8201093
 DBUS AVG_CONGESTED_CYCLE:    3.97927
 WQ ROW_BUFFER_HIT:     773839  ROW_BUFFER_MISS:    5621827  FULL:       2150


CPU 0 Branch Prediction Accuracy: 94.1302% MPKI: 4.44512 Average ROB Occupancy at Mispredict: 81.0502
Branch type MPKI
BRANCH_DIRECT_JUMP: 2.8e-05
BRANCH_INDIRECT: 0
BRANCH_CONDITIONAL: 4.44486
BRANCH_DIRECT_CALL: 0.000129333
BRANCH_INDIRECT_CALL: 0
BRANCH_RETURN: 0.000100667

