
*** ChampSim Multicore Out-of-Order Simulator ***

Warmup Instructions: 500000000
Simulation Instructions: 1500000000
Number of CPUs: 1
Off-chip DRAM Size: 4 GiB Channels: 1 Width: 64-bit Data Rate: 3200 MT/s

VirtualMemory physical capacity: 8588881920 num_ppages: 2096895
VirtualMemory page size: 4096 log2_page_size: 12

CPU 0 runs traces/627.cam4_s-573B.champsimtrace.xz
CPU 0 Bimodal branch predictor
Basic BTB sets: 1024 ways: 8 indirect buffer size: 4096 RAS size: 64
Initializing LRU.
Initializing LRU.
Initializing LRU.
Initializing LRU.
Initializing rdLRU.
Initializing LRU.
Initializing LRU.
Heartbeat CPU 0 instructions: 10000000 cycles: 2621763 heartbeat IPC: 3.81423 cumulative IPC: 3.81423 (Simulation time: 0 hr 0 min 33 sec) 
Heartbeat CPU 0 instructions: 20000003 cycles: 5121782 heartbeat IPC: 3.99997 cumulative IPC: 3.90489 (Simulation time: 0 hr 1 min 2 sec) 
Heartbeat CPU 0 instructions: 30000000 cycles: 7621783 heartbeat IPC: 4 cumulative IPC: 3.93609 (Simulation time: 0 hr 1 min 30 sec) 
Heartbeat CPU 0 instructions: 40000000 cycles: 10121842 heartbeat IPC: 3.99991 cumulative IPC: 3.95185 (Simulation time: 0 hr 1 min 59 sec) 
Heartbeat CPU 0 instructions: 50000001 cycles: 12621869 heartbeat IPC: 3.99996 cumulative IPC: 3.96138 (Simulation time: 0 hr 2 min 27 sec) 
Heartbeat CPU 0 instructions: 60000001 cycles: 15121869 heartbeat IPC: 4 cumulative IPC: 3.96776 (Simulation time: 0 hr 2 min 56 sec) 
Heartbeat CPU 0 instructions: 70000001 cycles: 17621869 heartbeat IPC: 4 cumulative IPC: 3.97234 (Simulation time: 0 hr 3 min 25 sec) 
Heartbeat CPU 0 instructions: 80000002 cycles: 20232312 heartbeat IPC: 3.83077 cumulative IPC: 3.95407 (Simulation time: 0 hr 4 min 5 sec) 
Heartbeat CPU 0 instructions: 90000000 cycles: 22863604 heartbeat IPC: 3.80041 cumulative IPC: 3.93639 (Simulation time: 0 hr 4 min 52 sec) 
Heartbeat CPU 0 instructions: 100000000 cycles: 25509215 heartbeat IPC: 3.77985 cumulative IPC: 3.92015 (Simulation time: 0 hr 5 min 45 sec) 
Heartbeat CPU 0 instructions: 110000000 cycles: 28731949 heartbeat IPC: 3.10296 cumulative IPC: 3.82849 (Simulation time: 0 hr 6 min 58 sec) 
Heartbeat CPU 0 instructions: 120000000 cycles: 31234681 heartbeat IPC: 3.99563 cumulative IPC: 3.84188 (Simulation time: 0 hr 7 min 37 sec) 
Heartbeat CPU 0 instructions: 130000001 cycles: 33734685 heartbeat IPC: 3.99999 cumulative IPC: 3.8536 (Simulation time: 0 hr 8 min 17 sec) 
Heartbeat CPU 0 instructions: 140000003 cycles: 36234727 heartbeat IPC: 3.99993 cumulative IPC: 3.8637 (Simulation time: 0 hr 8 min 56 sec) 
Heartbeat CPU 0 instructions: 150000001 cycles: 38734768 heartbeat IPC: 3.99993 cumulative IPC: 3.87249 (Simulation time: 0 hr 9 min 34 sec) 
Heartbeat CPU 0 instructions: 160000002 cycles: 41234771 heartbeat IPC: 4 cumulative IPC: 3.88022 (Simulation time: 0 hr 10 min 15 sec) 
Heartbeat CPU 0 instructions: 170000000 cycles: 43734773 heartbeat IPC: 4 cumulative IPC: 3.88707 (Simulation time: 0 hr 11 min 0 sec) 
Heartbeat CPU 0 instructions: 180000003 cycles: 46341011 heartbeat IPC: 3.83695 cumulative IPC: 3.88425 (Simulation time: 0 hr 11 min 46 sec) 
Heartbeat CPU 0 instructions: 190000000 cycles: 48942611 heartbeat IPC: 3.84379 cumulative IPC: 3.8821 (Simulation time: 0 hr 12 min 28 sec) 
Heartbeat CPU 0 instructions: 200000000 cycles: 51561285 heartbeat IPC: 3.81873 cumulative IPC: 3.87888 (Simulation time: 0 hr 13 min 6 sec) 
Heartbeat CPU 0 instructions: 210000001 cycles: 54843841 heartbeat IPC: 3.04641 cumulative IPC: 3.82905 (Simulation time: 0 hr 14 min 30 sec) 
Heartbeat CPU 0 instructions: 220000003 cycles: 57348265 heartbeat IPC: 3.99293 cumulative IPC: 3.83621 (Simulation time: 0 hr 15 min 21 sec) 
Heartbeat CPU 0 instructions: 230000003 cycles: 59848266 heartbeat IPC: 4 cumulative IPC: 3.84305 (Simulation time: 0 hr 15 min 58 sec) 
Heartbeat CPU 0 instructions: 240000002 cycles: 62348272 heartbeat IPC: 3.99999 cumulative IPC: 3.84934 (Simulation time: 0 hr 16 min 28 sec) 
Heartbeat CPU 0 instructions: 250000001 cycles: 64848347 heartbeat IPC: 3.99988 cumulative IPC: 3.85515 (Simulation time: 0 hr 16 min 58 sec) 
Heartbeat CPU 0 instructions: 260000003 cycles: 67348368 heartbeat IPC: 3.99997 cumulative IPC: 3.86052 (Simulation time: 0 hr 17 min 28 sec) 
Heartbeat CPU 0 instructions: 270000003 cycles: 69848395 heartbeat IPC: 3.99996 cumulative IPC: 3.86551 (Simulation time: 0 hr 17 min 58 sec) 
Heartbeat CPU 0 instructions: 280000002 cycles: 72374951 heartbeat IPC: 3.95796 cumulative IPC: 3.86874 (Simulation time: 0 hr 18 min 28 sec) 
Heartbeat CPU 0 instructions: 290000002 cycles: 74992413 heartbeat IPC: 3.82049 cumulative IPC: 3.86706 (Simulation time: 0 hr 19 min 0 sec) 
Heartbeat CPU 0 instructions: 300000003 cycles: 77669247 heartbeat IPC: 3.73576 cumulative IPC: 3.86253 (Simulation time: 0 hr 19 min 30 sec) 
Heartbeat CPU 0 instructions: 310000001 cycles: 80931167 heartbeat IPC: 3.06568 cumulative IPC: 3.83042 (Simulation time: 0 hr 20 min 30 sec) 
Heartbeat CPU 0 instructions: 320000002 cycles: 83462916 heartbeat IPC: 3.94984 cumulative IPC: 3.83404 (Simulation time: 0 hr 21 min 16 sec) 
Heartbeat CPU 0 instructions: 330000001 cycles: 85962921 heartbeat IPC: 3.99999 cumulative IPC: 3.83886 (Simulation time: 0 hr 22 min 7 sec) 
Heartbeat CPU 0 instructions: 340000003 cycles: 88462932 heartbeat IPC: 3.99998 cumulative IPC: 3.84342 (Simulation time: 0 hr 22 min 59 sec) 
Heartbeat CPU 0 instructions: 350000001 cycles: 90962952 heartbeat IPC: 3.99997 cumulative IPC: 3.84772 (Simulation time: 0 hr 23 min 41 sec) 
Heartbeat CPU 0 instructions: 360000003 cycles: 93462998 heartbeat IPC: 3.99993 cumulative IPC: 3.85179 (Simulation time: 0 hr 24 min 30 sec) 
Heartbeat CPU 0 instructions: 370000003 cycles: 95962998 heartbeat IPC: 4 cumulative IPC: 3.85565 (Simulation time: 0 hr 25 min 8 sec) 
Heartbeat CPU 0 instructions: 380000003 cycles: 98462998 heartbeat IPC: 4 cumulative IPC: 3.85932 (Simulation time: 0 hr 25 min 56 sec) 
Heartbeat CPU 0 instructions: 390000000 cycles: 101070189 heartbeat IPC: 3.83554 cumulative IPC: 3.8587 (Simulation time: 0 hr 26 min 30 sec) 
Heartbeat CPU 0 instructions: 400000001 cycles: 103712485 heartbeat IPC: 3.78459 cumulative IPC: 3.85682 (Simulation time: 0 hr 27 min 3 sec) 
Heartbeat CPU 0 instructions: 410000001 cycles: 106468770 heartbeat IPC: 3.62807 cumulative IPC: 3.85089 (Simulation time: 0 hr 27 min 36 sec) 
Heartbeat CPU 0 instructions: 420000003 cycles: 109578741 heartbeat IPC: 3.21546 cumulative IPC: 3.83286 (Simulation time: 0 hr 28 min 41 sec) 
Heartbeat CPU 0 instructions: 430000002 cycles: 112079777 heartbeat IPC: 3.99834 cumulative IPC: 3.83655 (Simulation time: 0 hr 29 min 32 sec) 
Heartbeat CPU 0 instructions: 440000000 cycles: 114579795 heartbeat IPC: 3.99997 cumulative IPC: 3.84012 (Simulation time: 0 hr 30 min 23 sec) 
Heartbeat CPU 0 instructions: 450000000 cycles: 117079835 heartbeat IPC: 3.99994 cumulative IPC: 3.84353 (Simulation time: 0 hr 31 min 3 sec) 
Heartbeat CPU 0 instructions: 460000000 cycles: 119579835 heartbeat IPC: 4 cumulative IPC: 3.8468 (Simulation time: 0 hr 31 min 42 sec) 
Heartbeat CPU 0 instructions: 470000000 cycles: 122079835 heartbeat IPC: 4 cumulative IPC: 3.84994 (Simulation time: 0 hr 32 min 23 sec) 
Heartbeat CPU 0 instructions: 480000000 cycles: 124579835 heartbeat IPC: 4 cumulative IPC: 3.85295 (Simulation time: 0 hr 32 min 57 sec) 
Heartbeat CPU 0 instructions: 490000000 cycles: 127185158 heartbeat IPC: 3.8383 cumulative IPC: 3.85265 (Simulation time: 0 hr 33 min 30 sec) 
Heartbeat CPU 0 instructions: 500000001 cycles: 129821358 heartbeat IPC: 3.79334 cumulative IPC: 3.85145 (Simulation time: 0 hr 34 min 4 sec) 

Warmup complete CPU 0 instructions: 500000001 cycles: 129821358 (Simulation time: 0 hr 34 min 4 sec) 

Heartbeat CPU 0 instructions: 510000001 cycles: 140149296 heartbeat IPC: 0.968247 cumulative IPC: 0.968247 (Simulation time: 0 hr 35 min 17 sec) 
Heartbeat CPU 0 instructions: 520000004 cycles: 173443721 heartbeat IPC: 0.300351 cumulative IPC: 0.458481 (Simulation time: 0 hr 43 min 38 sec) 
Heartbeat CPU 0 instructions: 530000000 cycles: 179371497 heartbeat IPC: 1.68697 cumulative IPC: 0.605447 (Simulation time: 0 hr 44 min 50 sec) 
Heartbeat CPU 0 instructions: 540000002 cycles: 184704654 heartbeat IPC: 1.87506 cumulative IPC: 0.728819 (Simulation time: 0 hr 45 min 59 sec) 
Heartbeat CPU 0 instructions: 550000002 cycles: 189913005 heartbeat IPC: 1.91999 cumulative IPC: 0.832062 (Simulation time: 0 hr 47 min 3 sec) 
Heartbeat CPU 0 instructions: 560000000 cycles: 195731760 heartbeat IPC: 1.71858 cumulative IPC: 0.910327 (Simulation time: 0 hr 48 min 1 sec) 
Heartbeat CPU 0 instructions: 570000000 cycles: 201947597 heartbeat IPC: 1.60879 cumulative IPC: 0.970521 (Simulation time: 0 hr 48 min 56 sec) 
Heartbeat CPU 0 instructions: 580000000 cycles: 208328532 heartbeat IPC: 1.56717 cumulative IPC: 1.01902 (Simulation time: 0 hr 49 min 37 sec) 
Heartbeat CPU 0 instructions: 590000000 cycles: 216129340 heartbeat IPC: 1.28192 cumulative IPC: 1.04278 (Simulation time: 0 hr 50 min 16 sec) 
Heartbeat CPU 0 instructions: 600000001 cycles: 225089525 heartbeat IPC: 1.11605 cumulative IPC: 1.04967 (Simulation time: 0 hr 50 min 59 sec) 
Heartbeat CPU 0 instructions: 610000004 cycles: 235168144 heartbeat IPC: 0.9922 cumulative IPC: 1.04417 (Simulation time: 0 hr 51 min 55 sec) 
Heartbeat CPU 0 instructions: 620000002 cycles: 268327388 heartbeat IPC: 0.301575 cumulative IPC: 0.866388 (Simulation time: 1 hr 2 min 30 sec) 
Heartbeat CPU 0 instructions: 630000003 cycles: 274539279 heartbeat IPC: 1.60982 cumulative IPC: 0.898299 (Simulation time: 1 hr 3 min 10 sec) 
Heartbeat CPU 0 instructions: 640000001 cycles: 279864001 heartbeat IPC: 1.87803 cumulative IPC: 0.933068 (Simulation time: 1 hr 4 min 18 sec) 
Heartbeat CPU 0 instructions: 650000000 cycles: 285350298 heartbeat IPC: 1.82272 cumulative IPC: 0.964451 (Simulation time: 1 hr 5 min 20 sec) 
Heartbeat CPU 0 instructions: 660000000 cycles: 291779073 heartbeat IPC: 1.55551 cumulative IPC: 0.987912 (Simulation time: 1 hr 6 min 13 sec) 
Heartbeat CPU 0 instructions: 670000000 cycles: 298347901 heartbeat IPC: 1.52234 cumulative IPC: 1.00874 (Simulation time: 1 hr 7 min 6 sec) 
Heartbeat CPU 0 instructions: 680000003 cycles: 305477636 heartbeat IPC: 1.40258 cumulative IPC: 1.02473 (Simulation time: 1 hr 8 min 5 sec) 
Heartbeat CPU 0 instructions: 690000002 cycles: 314197849 heartbeat IPC: 1.14676 cumulative IPC: 1.0305 (Simulation time: 1 hr 8 min 55 sec) 
Heartbeat CPU 0 instructions: 700000001 cycles: 324724290 heartbeat IPC: 0.949989 cumulative IPC: 1.02615 (Simulation time: 1 hr 9 min 59 sec) 
Heartbeat CPU 0 instructions: 710000001 cycles: 357788503 heartbeat IPC: 0.302442 cumulative IPC: 0.921185 (Simulation time: 1 hr 20 min 29 sec) 
Heartbeat CPU 0 instructions: 720000004 cycles: 364505048 heartbeat IPC: 1.48886 cumulative IPC: 0.937432 (Simulation time: 1 hr 21 min 39 sec) 
Heartbeat CPU 0 instructions: 730000001 cycles: 370037611 heartbeat IPC: 1.80748 cumulative IPC: 0.957471 (Simulation time: 1 hr 22 min 29 sec) 
Heartbeat CPU 0 instructions: 740000001 cycles: 375632393 heartbeat IPC: 1.78738 cumulative IPC: 0.97636 (Simulation time: 1 hr 23 min 2 sec) 
Heartbeat CPU 0 instructions: 750000004 cycles: 381806983 heartbeat IPC: 1.61954 cumulative IPC: 0.99212 (Simulation time: 1 hr 23 min 33 sec) 
Heartbeat CPU 0 instructions: 760000000 cycles: 388262742 heartbeat IPC: 1.549 cumulative IPC: 1.00603 (Simulation time: 1 hr 24 min 4 sec) 
Heartbeat CPU 0 instructions: 770000001 cycles: 395465523 heartbeat IPC: 1.38835 cumulative IPC: 1.0164 (Simulation time: 1 hr 24 min 46 sec) 
Heartbeat CPU 0 instructions: 780000003 cycles: 404021523 heartbeat IPC: 1.16877 cumulative IPC: 1.02115 (Simulation time: 1 hr 25 min 22 sec) 
Heartbeat CPU 0 instructions: 790000002 cycles: 413969810 heartbeat IPC: 1.0052 cumulative IPC: 1.02059 (Simulation time: 1 hr 26 min 2 sec) 
Heartbeat CPU 0 instructions: 800000000 cycles: 447613549 heartbeat IPC: 0.297232 cumulative IPC: 0.944013 (Simulation time: 1 hr 34 min 9 sec) 
Heartbeat CPU 0 instructions: 810000000 cycles: 454626736 heartbeat IPC: 1.42589 cumulative IPC: 0.954418 (Simulation time: 1 hr 35 min 4 sec) 
Heartbeat CPU 0 instructions: 820000004 cycles: 460070327 heartbeat IPC: 1.83702 cumulative IPC: 0.968966 (Simulation time: 1 hr 36 min 16 sec) 
Heartbeat CPU 0 instructions: 830000002 cycles: 465867888 heartbeat IPC: 1.72486 cumulative IPC: 0.982007 (Simulation time: 1 hr 37 min 15 sec) 
Heartbeat CPU 0 instructions: 840000003 cycles: 471825523 heartbeat IPC: 1.67852 cumulative IPC: 0.99414 (Simulation time: 1 hr 38 min 11 sec) 
Heartbeat CPU 0 instructions: 850000004 cycles: 478260327 heartbeat IPC: 1.55405 cumulative IPC: 1.00448 (Simulation time: 1 hr 39 min 4 sec) 
Heartbeat CPU 0 instructions: 860000003 cycles: 484781819 heartbeat IPC: 1.53339 cumulative IPC: 1.0142 (Simulation time: 1 hr 40 min 7 sec) 
Heartbeat CPU 0 instructions: 870000001 cycles: 493755597 heartbeat IPC: 1.11436 cumulative IPC: 1.01667 (Simulation time: 1 hr 41 min 10 sec) 
Heartbeat CPU 0 instructions: 880000003 cycles: 503962814 heartbeat IPC: 0.979699 cumulative IPC: 1.01566 (Simulation time: 1 hr 42 min 11 sec) 
Heartbeat CPU 0 instructions: 890000000 cycles: 537442099 heartbeat IPC: 0.298692 cumulative IPC: 0.956772 (Simulation time: 1 hr 51 min 9 sec) 
Heartbeat CPU 0 instructions: 900000001 cycles: 544835475 heartbeat IPC: 1.35256 cumulative IPC: 0.963823 (Simulation time: 1 hr 51 min 54 sec) 
Heartbeat CPU 0 instructions: 910000000 cycles: 550164937 heartbeat IPC: 1.87636 cumulative IPC: 0.975393 (Simulation time: 1 hr 52 min 59 sec) 
Heartbeat CPU 0 instructions: 920000002 cycles: 555424575 heartbeat IPC: 1.90127 cumulative IPC: 0.986835 (Simulation time: 1 hr 53 min 39 sec) 
Heartbeat CPU 0 instructions: 930000000 cycles: 561548267 heartbeat IPC: 1.633 cumulative IPC: 0.996 (Simulation time: 1 hr 54 min 12 sec) 
Heartbeat CPU 0 instructions: 940000000 cycles: 568124039 heartbeat IPC: 1.52073 cumulative IPC: 1.00387 (Simulation time: 1 hr 55 min 2 sec) 
Heartbeat CPU 0 instructions: 950000001 cycles: 574599185 heartbeat IPC: 1.54437 cumulative IPC: 1.01174 (Simulation time: 1 hr 55 min 50 sec) 
Heartbeat CPU 0 instructions: 960000000 cycles: 582343065 heartbeat IPC: 1.29134 cumulative IPC: 1.01653 (Simulation time: 1 hr 56 min 53 sec) 
Heartbeat CPU 0 instructions: 970000000 cycles: 590923170 heartbeat IPC: 1.16549 cumulative IPC: 1.0193 (Simulation time: 1 hr 57 min 58 sec) 
Heartbeat CPU 0 instructions: 980000004 cycles: 601039092 heartbeat IPC: 0.988541 cumulative IPC: 1.01864 (Simulation time: 1 hr 59 min 23 sec) 
Heartbeat CPU 0 instructions: 990000002 cycles: 634387350 heartbeat IPC: 0.299866 cumulative IPC: 0.971132 (Simulation time: 2 hr 7 min 21 sec) 
Heartbeat CPU 0 instructions: 1000000000 cycles: 640751092 heartbeat IPC: 1.5714 cumulative IPC: 0.978608 (Simulation time: 2 hr 8 min 0 sec) 
Heartbeat CPU 0 instructions: 1010000000 cycles: 646131997 heartbeat IPC: 1.85842 cumulative IPC: 0.987777 (Simulation time: 2 hr 8 min 53 sec) 
Heartbeat CPU 0 instructions: 1020000002 cycles: 651305407 heartbeat IPC: 1.93296 cumulative IPC: 0.997154 (Simulation time: 2 hr 9 min 28 sec) 
Heartbeat CPU 0 instructions: 1030000001 cycles: 657656097 heartbeat IPC: 1.57463 cumulative IPC: 1.0041 (Simulation time: 2 hr 10 min 12 sec) 
Heartbeat CPU 0 instructions: 1040000002 cycles: 663592935 heartbeat IPC: 1.6844 cumulative IPC: 1.01167 (Simulation time: 2 hr 10 min 46 sec) 
Heartbeat CPU 0 instructions: 1050000003 cycles: 669757767 heartbeat IPC: 1.6221 cumulative IPC: 1.01864 (Simulation time: 2 hr 11 min 20 sec) 
Heartbeat CPU 0 instructions: 1060000000 cycles: 677836839 heartbeat IPC: 1.23777 cumulative IPC: 1.02187 (Simulation time: 2 hr 11 min 56 sec) 
Heartbeat CPU 0 instructions: 1070000000 cycles: 687653962 heartbeat IPC: 1.01863 cumulative IPC: 1.02181 (Simulation time: 2 hr 12 min 28 sec) 
Heartbeat CPU 0 instructions: 1080000004 cycles: 714557012 heartbeat IPC: 0.371705 cumulative IPC: 0.991901 (Simulation time: 2 hr 19 min 41 sec) 
Heartbeat CPU 0 instructions: 1090000002 cycles: 730541208 heartbeat IPC: 0.625618 cumulative IPC: 0.982155 (Simulation time: 2 hr 21 min 38 sec) 
Heartbeat CPU 0 instructions: 1100000001 cycles: 735978788 heartbeat IPC: 1.83905 cumulative IPC: 0.989842 (Simulation time: 2 hr 22 min 39 sec) 
Heartbeat CPU 0 instructions: 1110000002 cycles: 741212670 heartbeat IPC: 1.91063 cumulative IPC: 0.997724 (Simulation time: 2 hr 23 min 16 sec) 
Heartbeat CPU 0 instructions: 1120000002 cycles: 746451090 heartbeat IPC: 1.90897 cumulative IPC: 1.00547 (Simulation time: 2 hr 24 min 14 sec) 
Heartbeat CPU 0 instructions: 1130000000 cycles: 753077434 heartbeat IPC: 1.50913 cumulative IPC: 1.01082 (Simulation time: 2 hr 24 min 47 sec) 
Heartbeat CPU 0 instructions: 1140000003 cycles: 759692713 heartbeat IPC: 1.51165 cumulative IPC: 1.01608 (Simulation time: 2 hr 25 min 33 sec) 
Heartbeat CPU 0 instructions: 1150000000 cycles: 765793816 heartbeat IPC: 1.63905 cumulative IPC: 1.02206 (Simulation time: 2 hr 26 min 20 sec) 
Heartbeat CPU 0 instructions: 1160000001 cycles: 774210654 heartbeat IPC: 1.18809 cumulative IPC: 1.02423 (Simulation time: 2 hr 27 min 1 sec) 
Heartbeat CPU 0 instructions: 1170000000 cycles: 784206288 heartbeat IPC: 1.00044 cumulative IPC: 1.02386 (Simulation time: 2 hr 27 min 37 sec) 
Heartbeat CPU 0 instructions: 1180000002 cycles: 812524825 heartbeat IPC: 0.353126 cumulative IPC: 0.99604 (Simulation time: 2 hr 34 min 31 sec) 
Heartbeat CPU 0 instructions: 1190000004 cycles: 826697178 heartbeat IPC: 0.705599 cumulative IPC: 0.990133 (Simulation time: 2 hr 36 min 11 sec) 
Heartbeat CPU 0 instructions: 1200000003 cycles: 832163213 heartbeat IPC: 1.82948 cumulative IPC: 0.996666 (Simulation time: 2 hr 36 min 53 sec) 
Heartbeat CPU 0 instructions: 1210000000 cycles: 837404496 heartbeat IPC: 1.90793 cumulative IPC: 1.00342 (Simulation time: 2 hr 37 min 32 sec) 
Heartbeat CPU 0 instructions: 1220000000 cycles: 842775936 heartbeat IPC: 1.8617 cumulative IPC: 1.00988 (Simulation time: 2 hr 38 min 9 sec) 
Heartbeat CPU 0 instructions: 1230000004 cycles: 849288073 heartbeat IPC: 1.53559 cumulative IPC: 1.01464 (Simulation time: 2 hr 38 min 43 sec) 
Heartbeat CPU 0 instructions: 1240000002 cycles: 855895683 heartbeat IPC: 1.51341 cumulative IPC: 1.01918 (Simulation time: 2 hr 39 min 15 sec) 
Heartbeat CPU 0 instructions: 1250000000 cycles: 862068906 heartbeat IPC: 1.6199 cumulative IPC: 1.02424 (Simulation time: 2 hr 39 min 52 sec) 
Heartbeat CPU 0 instructions: 1260000001 cycles: 870873467 heartbeat IPC: 1.13578 cumulative IPC: 1.02557 (Simulation time: 2 hr 40 min 30 sec) 
Heartbeat CPU 0 instructions: 1270000003 cycles: 881235437 heartbeat IPC: 0.965068 cumulative IPC: 1.02473 (Simulation time: 2 hr 41 min 6 sec) 
Heartbeat CPU 0 instructions: 1280000002 cycles: 914424151 heartbeat IPC: 0.301307 cumulative IPC: 0.994134 (Simulation time: 2 hr 48 min 56 sec) 
Heartbeat CPU 0 instructions: 1290000000 cycles: 922826281 heartbeat IPC: 1.19017 cumulative IPC: 0.996211 (Simulation time: 2 hr 49 min 35 sec) 
Heartbeat CPU 0 instructions: 1300000002 cycles: 928226305 heartbeat IPC: 1.85184 cumulative IPC: 1.002 (Simulation time: 2 hr 50 min 27 sec) 
Heartbeat CPU 0 instructions: 1310000000 cycles: 933380018 heartbeat IPC: 1.94035 cumulative IPC: 1.00802 (Simulation time: 2 hr 51 min 2 sec) 
Heartbeat CPU 0 instructions: 1320000001 cycles: 938726820 heartbeat IPC: 1.87028 cumulative IPC: 1.01372 (Simulation time: 2 hr 51 min 36 sec) 
Heartbeat CPU 0 instructions: 1330000003 cycles: 945272632 heartbeat IPC: 1.52769 cumulative IPC: 1.01784 (Simulation time: 2 hr 52 min 7 sec) 
Heartbeat CPU 0 instructions: 1340000003 cycles: 951755569 heartbeat IPC: 1.54251 cumulative IPC: 1.02198 (Simulation time: 2 hr 52 min 38 sec) 
Heartbeat CPU 0 instructions: 1350000000 cycles: 957780533 heartbeat IPC: 1.65976 cumulative IPC: 1.02662 (Simulation time: 2 hr 53 min 13 sec) 
Heartbeat CPU 0 instructions: 1360000003 cycles: 966949833 heartbeat IPC: 1.0906 cumulative IPC: 1.02732 (Simulation time: 2 hr 53 min 49 sec) 
Heartbeat CPU 0 instructions: 1370000000 cycles: 977304955 heartbeat IPC: 0.965705 cumulative IPC: 1.02657 (Simulation time: 2 hr 54 min 32 sec) 
Heartbeat CPU 0 instructions: 1380000002 cycles: 1010534324 heartbeat IPC: 0.300939 cumulative IPC: 0.99919 (Simulation time: 3 hr 1 min 27 sec) 
Heartbeat CPU 0 instructions: 1390000001 cycles: 1018289295 heartbeat IPC: 1.2895 cumulative IPC: 1.00172 (Simulation time: 3 hr 2 min 11 sec) 
Heartbeat CPU 0 instructions: 1400000001 cycles: 1023698042 heartbeat IPC: 1.84886 cumulative IPC: 1.00685 (Simulation time: 3 hr 2 min 55 sec) 
Heartbeat CPU 0 instructions: 1410000000 cycles: 1028858566 heartbeat IPC: 1.93779 cumulative IPC: 1.01219 (Simulation time: 3 hr 3 min 31 sec) 
Heartbeat CPU 0 instructions: 1420000003 cycles: 1034398698 heartbeat IPC: 1.80501 cumulative IPC: 1.01705 (Simulation time: 3 hr 4 min 7 sec) 
Heartbeat CPU 0 instructions: 1430000001 cycles: 1040716247 heartbeat IPC: 1.58289 cumulative IPC: 1.02097 (Simulation time: 3 hr 4 min 41 sec) 
Heartbeat CPU 0 instructions: 1440000000 cycles: 1047271192 heartbeat IPC: 1.52557 cumulative IPC: 1.02458 (Simulation time: 3 hr 5 min 12 sec) 
Heartbeat CPU 0 instructions: 1450000000 cycles: 1053248873 heartbeat IPC: 1.67289 cumulative IPC: 1.02878 (Simulation time: 3 hr 5 min 47 sec) 
Heartbeat CPU 0 instructions: 1460000001 cycles: 1062458049 heartbeat IPC: 1.08587 cumulative IPC: 1.02934 (Simulation time: 3 hr 6 min 24 sec) 
Heartbeat CPU 0 instructions: 1470000001 cycles: 1072832370 heartbeat IPC: 0.963919 cumulative IPC: 1.02862 (Simulation time: 3 hr 7 min 1 sec) 
Heartbeat CPU 0 instructions: 1480000002 cycles: 1106151740 heartbeat IPC: 0.300126 cumulative IPC: 1.00376 (Simulation time: 3 hr 13 min 41 sec) 
Heartbeat CPU 0 instructions: 1490000003 cycles: 1113939532 heartbeat IPC: 1.28406 cumulative IPC: 1.00598 (Simulation time: 3 hr 14 min 21 sec) 
Heartbeat CPU 0 instructions: 1500000000 cycles: 1119331797 heartbeat IPC: 1.85451 cumulative IPC: 1.0106 (Simulation time: 3 hr 15 min 2 sec) 
Heartbeat CPU 0 instructions: 1510000000 cycles: 1124556600 heartbeat IPC: 1.91395 cumulative IPC: 1.01535 (Simulation time: 3 hr 15 min 40 sec) 
Heartbeat CPU 0 instructions: 1520000000 cycles: 1130092080 heartbeat IPC: 1.80653 cumulative IPC: 1.01972 (Simulation time: 3 hr 16 min 15 sec) 
Heartbeat CPU 0 instructions: 1530000001 cycles: 1136584105 heartbeat IPC: 1.54035 cumulative IPC: 1.02308 (Simulation time: 3 hr 16 min 46 sec) 
Heartbeat CPU 0 instructions: 1540000002 cycles: 1143059582 heartbeat IPC: 1.54429 cumulative IPC: 1.02641 (Simulation time: 3 hr 17 min 18 sec) 
Heartbeat CPU 0 instructions: 1550000002 cycles: 1150085654 heartbeat IPC: 1.42327 cumulative IPC: 1.02915 (Simulation time: 3 hr 17 min 55 sec) 
Heartbeat CPU 0 instructions: 1560000004 cycles: 1158982896 heartbeat IPC: 1.12394 cumulative IPC: 1.02996 (Simulation time: 3 hr 18 min 30 sec) 
Heartbeat CPU 0 instructions: 1570000004 cycles: 1169428636 heartbeat IPC: 0.957328 cumulative IPC: 1.02923 (Simulation time: 3 hr 19 min 16 sec) 
Heartbeat CPU 0 instructions: 1580000001 cycles: 1202484672 heartbeat IPC: 0.302517 cumulative IPC: 1.00684 (Simulation time: 3 hr 25 min 48 sec) 
Heartbeat CPU 0 instructions: 1590000001 cycles: 1209131769 heartbeat IPC: 1.50442 cumulative IPC: 1.0099 (Simulation time: 3 hr 26 min 29 sec) 
Heartbeat CPU 0 instructions: 1600000004 cycles: 1214747466 heartbeat IPC: 1.78072 cumulative IPC: 1.01389 (Simulation time: 3 hr 27 min 8 sec) 
Heartbeat CPU 0 instructions: 1610000004 cycles: 1219990141 heartbeat IPC: 1.90742 cumulative IPC: 1.01819 (Simulation time: 3 hr 27 min 44 sec) 
Heartbeat CPU 0 instructions: 1620000001 cycles: 1225813652 heartbeat IPC: 1.71718 cumulative IPC: 1.0219 (Simulation time: 3 hr 28 min 16 sec) 
Heartbeat CPU 0 instructions: 1630000000 cycles: 1232112820 heartbeat IPC: 1.58751 cumulative IPC: 1.02514 (Simulation time: 3 hr 28 min 49 sec) 
Heartbeat CPU 0 instructions: 1640000004 cycles: 1238215197 heartbeat IPC: 1.63871 cumulative IPC: 1.02852 (Simulation time: 3 hr 29 min 23 sec) 
Heartbeat CPU 0 instructions: 1650000003 cycles: 1247148273 heartbeat IPC: 1.11944 cumulative IPC: 1.02924 (Simulation time: 3 hr 29 min 57 sec) 
Heartbeat CPU 0 instructions: 1660000004 cycles: 1257518389 heartbeat IPC: 0.964309 cumulative IPC: 1.02865 (Simulation time: 3 hr 30 min 33 sec) 
Heartbeat CPU 0 instructions: 1670000003 cycles: 1290631191 heartbeat IPC: 0.301998 cumulative IPC: 1.00792 (Simulation time: 3 hr 37 min 7 sec) 
Heartbeat CPU 0 instructions: 1680000002 cycles: 1298764060 heartbeat IPC: 1.22958 cumulative IPC: 1.00946 (Simulation time: 3 hr 37 min 46 sec) 
Heartbeat CPU 0 instructions: 1690000002 cycles: 1304067546 heartbeat IPC: 1.88555 cumulative IPC: 1.01342 (Simulation time: 3 hr 38 min 25 sec) 
Heartbeat CPU 0 instructions: 1700000002 cycles: 1309382555 heartbeat IPC: 1.88146 cumulative IPC: 1.01733 (Simulation time: 3 hr 39 min 4 sec) 
Heartbeat CPU 0 instructions: 1710000003 cycles: 1315254185 heartbeat IPC: 1.7031 cumulative IPC: 1.02072 (Simulation time: 3 hr 39 min 37 sec) 
Heartbeat CPU 0 instructions: 1720000000 cycles: 1321698402 heartbeat IPC: 1.55178 cumulative IPC: 1.0236 (Simulation time: 3 hr 40 min 8 sec) 
Heartbeat CPU 0 instructions: 1730000004 cycles: 1328114838 heartbeat IPC: 1.5585 cumulative IPC: 1.02646 (Simulation time: 3 hr 40 min 39 sec) 
Heartbeat CPU 0 instructions: 1740000004 cycles: 1335889010 heartbeat IPC: 1.28631 cumulative IPC: 1.02813 (Simulation time: 3 hr 41 min 15 sec) 
Heartbeat CPU 0 instructions: 1750000004 cycles: 1344702744 heartbeat IPC: 1.13459 cumulative IPC: 1.02891 (Simulation time: 3 hr 41 min 53 sec) 
Heartbeat CPU 0 instructions: 1760000001 cycles: 1355045746 heartbeat IPC: 0.966837 cumulative IPC: 1.02838 (Simulation time: 3 hr 42 min 48 sec) 
Heartbeat CPU 0 instructions: 1770000004 cycles: 1388066850 heartbeat IPC: 0.302837 cumulative IPC: 1.00934 (Simulation time: 3 hr 49 min 4 sec) 
Heartbeat CPU 0 instructions: 1780000000 cycles: 1394313949 heartbeat IPC: 1.60074 cumulative IPC: 1.01226 (Simulation time: 3 hr 49 min 44 sec) 
Heartbeat CPU 0 instructions: 1790000004 cycles: 1399641537 heartbeat IPC: 1.87702 cumulative IPC: 1.01589 (Simulation time: 3 hr 50 min 23 sec) 
Heartbeat CPU 0 instructions: 1800000000 cycles: 1405038853 heartbeat IPC: 1.85277 cumulative IPC: 1.01943 (Simulation time: 3 hr 50 min 59 sec) 
Heartbeat CPU 0 instructions: 1810000003 cycles: 1411518111 heartbeat IPC: 1.54339 cumulative IPC: 1.02208 (Simulation time: 3 hr 51 min 29 sec) 
Heartbeat CPU 0 instructions: 1820000004 cycles: 1417909003 heartbeat IPC: 1.56473 cumulative IPC: 1.02478 (Simulation time: 3 hr 51 min 59 sec) 
Heartbeat CPU 0 instructions: 1830000000 cycles: 1423938160 heartbeat IPC: 1.65861 cumulative IPC: 1.02773 (Simulation time: 3 hr 52 min 33 sec) 
Heartbeat CPU 0 instructions: 1840000003 cycles: 1432925147 heartbeat IPC: 1.11272 cumulative IPC: 1.02831 (Simulation time: 3 hr 53 min 8 sec) 
Heartbeat CPU 0 instructions: 1850000000 cycles: 1443275584 heartbeat IPC: 0.966142 cumulative IPC: 1.02782 (Simulation time: 3 hr 53 min 43 sec) 
Heartbeat CPU 0 instructions: 1860000001 cycles: 1476390059 heartbeat IPC: 0.301983 cumulative IPC: 1.00997 (Simulation time: 4 hr 0 min 13 sec) 
Heartbeat CPU 0 instructions: 1870000001 cycles: 1484273251 heartbeat IPC: 1.26852 cumulative IPC: 1.01148 (Simulation time: 4 hr 0 min 52 sec) 
Heartbeat CPU 0 instructions: 1880000000 cycles: 1489559206 heartbeat IPC: 1.89181 cumulative IPC: 1.0149 (Simulation time: 4 hr 1 min 29 sec) 
Heartbeat CPU 0 instructions: 1890000000 cycles: 1494912532 heartbeat IPC: 1.868 cumulative IPC: 1.01825 (Simulation time: 4 hr 2 min 6 sec) 
Heartbeat CPU 0 instructions: 1900000004 cycles: 1500700527 heartbeat IPC: 1.72771 cumulative IPC: 1.02124 (Simulation time: 4 hr 2 min 38 sec) 
Heartbeat CPU 0 instructions: 1910000003 cycles: 1506984525 heartbeat IPC: 1.59134 cumulative IPC: 1.02384 (Simulation time: 4 hr 3 min 8 sec) 
Heartbeat CPU 0 instructions: 1920000004 cycles: 1513056182 heartbeat IPC: 1.647 cumulative IPC: 1.02658 (Simulation time: 4 hr 3 min 40 sec) 
Heartbeat CPU 0 instructions: 1930000001 cycles: 1521267831 heartbeat IPC: 1.21778 cumulative IPC: 1.02771 (Simulation time: 4 hr 4 min 15 sec) 
Heartbeat CPU 0 instructions: 1940000000 cycles: 1531592631 heartbeat IPC: 0.968542 cumulative IPC: 1.02727 (Simulation time: 4 hr 4 min 50 sec) 
Heartbeat CPU 0 instructions: 1950000004 cycles: 1561577464 heartbeat IPC: 0.333502 cumulative IPC: 1.01274 (Simulation time: 4 hr 10 min 40 sec) 
Heartbeat CPU 0 instructions: 1960000001 cycles: 1573458836 heartbeat IPC: 0.841653 cumulative IPC: 1.01133 (Simulation time: 4 hr 11 min 57 sec) 
Heartbeat CPU 0 instructions: 1970000004 cycles: 1578811839 heartbeat IPC: 1.86811 cumulative IPC: 1.0145 (Simulation time: 4 hr 12 min 35 sec) 
Heartbeat CPU 0 instructions: 1980000003 cycles: 1584210154 heartbeat IPC: 1.85243 cumulative IPC: 1.01761 (Simulation time: 4 hr 13 min 14 sec) 
Heartbeat CPU 0 instructions: 1990000001 cycles: 1590564178 heartbeat IPC: 1.57381 cumulative IPC: 1.02003 (Simulation time: 4 hr 13 min 43 sec) 
*** Reached end of trace: traces/627.cam4_s-573B.champsimtrace.xz
Heartbeat CPU 0 instructions: 2000000004 cycles: 1596749227 heartbeat IPC: 1.6168 cumulative IPC: 1.02255 (Simulation time: 4 hr 14 min 14 sec) 
Finished CPU 0 instructions: 1500000003 cycles: 1466927869 cumulative IPC: 1.02255 (Simulation time: 4 hr 14 min 14 sec) 

ChampSim completed all CPUs

Region of Interest Statistics

CPU 0 cumulative IPC: 1.02255 instructions: 1500000003 cycles: 1466927869
cpu0_DTLB TOTAL     ACCESS:  238266813  HIT:  237313273  MISS:     953540
cpu0_DTLB LOAD      ACCESS:  158666625  HIT:  157951775  MISS:     714850
cpu0_DTLB RFO       ACCESS:   79600188  HIT:   79361498  MISS:     238690
cpu0_DTLB PREFETCH  ACCESS:          0  HIT:          0  MISS:          0
cpu0_DTLB WRITEBACK ACCESS:          0  HIT:          0  MISS:          0
cpu0_DTLB TRANSLATION ACCESS:          0  HIT:          0  MISS:          0
cpu0_DTLB PREFETCH  REQUESTED:          0  ISSUED:          0  USEFUL:          0  USELESS:          0
cpu0_DTLB AVERAGE MISS LATENCY: 12.0125 cycles
cpu0_ITLB TOTAL     ACCESS:  110993181  HIT:  110974487  MISS:      18694
cpu0_ITLB LOAD      ACCESS:  110993181  HIT:  110974487  MISS:      18694
cpu0_ITLB RFO       ACCESS:          0  HIT:          0  MISS:          0
cpu0_ITLB PREFETCH  ACCESS:          0  HIT:          0  MISS:          0
cpu0_ITLB WRITEBACK ACCESS:          0  HIT:          0  MISS:          0
cpu0_ITLB TRANSLATION ACCESS:          0  HIT:          0  MISS:          0
cpu0_ITLB PREFETCH  REQUESTED:          0  ISSUED:          0  USEFUL:          0  USELESS:          0
cpu0_ITLB AVERAGE MISS LATENCY: 11.8238 cycles
cpu0_L1I TOTAL     ACCESS:   89942341  HIT:   89334779  MISS:     607562
cpu0_L1I LOAD      ACCESS:   89942341  HIT:   89334779  MISS:     607562
cpu0_L1I RFO       ACCESS:          0  HIT:          0  MISS:          0
cpu0_L1I PREFETCH  ACCESS:          0  HIT:          0  MISS:          0
cpu0_L1I WRITEBACK ACCESS:          0  HIT:          0  MISS:          0
cpu0_L1I TRANSLATION ACCESS:          0  HIT:          0  MISS:          0
cpu0_L1I PREFETCH  REQUESTED:          0  ISSUED:          0  USEFUL:          0  USELESS:          0
cpu0_L1I AVERAGE MISS LATENCY: 77.36 cycles
cpu0_STLB TOTAL     ACCESS:     972234  HIT:     817612  MISS:     154622
cpu0_STLB LOAD      ACCESS:     733544  HIT:     701330  MISS:      32214
cpu0_STLB RFO       ACCESS:     238690  HIT:     116282  MISS:     122408
cpu0_STLB PREFETCH  ACCESS:          0  HIT:          0  MISS:          0
cpu0_STLB WRITEBACK ACCESS:          0  HIT:          0  MISS:          0
cpu0_STLB TRANSLATION ACCESS:          0  HIT:          0  MISS:          0
cpu0_STLB PREFETCH  REQUESTED:          0  ISSUED:          0  USEFUL:          0  USELESS:          0
cpu0_STLB AVERAGE MISS LATENCY: 18.5707 cycles
cpu0_L1D TOTAL     ACCESS:  283017204  HIT:  268717602  MISS:   14299602
cpu0_L1D LOAD      ACCESS:  158374952  HIT:  153718225  MISS:    4656727
cpu0_L1D RFO       ACCESS:  124492859  HIT:  114855009  MISS:    9637850
cpu0_L1D PREFETCH  ACCESS:          0  HIT:          0  MISS:          0
cpu0_L1D WRITEBACK ACCESS:          0  HIT:          0  MISS:          0
cpu0_L1D TRANSLATION ACCESS:     149393  HIT:     144368  MISS:       5025
cpu0_L1D PREFETCH  REQUESTED:          0  ISSUED:          0  USEFUL:          0  USELESS:          0
cpu0_L1D AVERAGE MISS LATENCY: 560.46 cycles
cpu0_L2C TOTAL     ACCESS:   25147400  HIT:   16293691  MISS:    8853709
cpu0_L2C LOAD      ACCESS:    5263765  HIT:    4198389  MISS:    1065376
cpu0_L2C RFO       ACCESS:    9637443  HIT:    1853047  MISS:    7784396
cpu0_L2C PREFETCH  ACCESS:          0  HIT:          0  MISS:          0
cpu0_L2C WRITEBACK ACCESS:   10241167  HIT:   10238868  MISS:       2299
cpu0_L2C TRANSLATION ACCESS:       5025  HIT:       3387  MISS:       1638
cpu0_L2C PREFETCH  REQUESTED:          0  ISSUED:          0  USEFUL:          0  USELESS:          0
cpu0_L2C AVERAGE MISS LATENCY: 891.934 cycles
LLC TOTAL     ACCESS:   16754511  HIT:    8563514  MISS:    8190997
LLC LOAD      ACCESS:    1065318  HIT:     478734  MISS:     586584
LLC RFO       ACCESS:    7784396  HIT:     186998  MISS:    7597398
LLC PREFETCH  ACCESS:          0  HIT:          0  MISS:          0
LLC WRITEBACK ACCESS:    7903159  HIT:    7897212  MISS:       5947
LLC TRANSLATION ACCESS:       1638  HIT:        570  MISS:       1068
LLC PREFETCH  REQUESTED:          0  ISSUED:          0  USEFUL:          0  USELESS:          0
LLC AVERAGE MISS LATENCY: 941.405 cycles
~~~~~~~~~~Reuse Distance Profiler output~~~~~~~~~~
0	82664224	18047296
1	31947696	15642512
2	25174256	14907280
3	17887872	11449712
4	14368608	9015152
5	10607712	7338016
6	8625760	6019168
7	7502544	4589664
8	7278160	4183680
9	5802288	3753296
10	5039328	3450688
11	3901040	2686528
12	3537680	2478752
13	3575472	2359008
14	3087808	1950528
15	2726560	1754288
16	2913792	1404336
17	3085984	1712288
18	2231296	1499392
19	2335456	1348224
20	1888112	1204592
21	2153376	1564592
22	1751536	1350752
23	1986480	1357360
24	1878112	1396912
25	1882480	1295488
26	2431264	1737168
27	1810720	1245728
28	1554512	1203264
29	1109680	719392
30	1419424	1050032
31	1330592	921376
32	1038704	762928
33	907248	655712
34	1455584	1170304
35	1188832	959808
36	833008	598704
37	831168	600656
38	925632	676720
39	993280	717136
40	1227376	898176
41	1004912	526656
42	663088	419456
43	716064	493376
44	943584	714720
45	986496	820640
46	659504	466224
47	656208	477552
48	777360	522592
49	722880	517584
50	603024	415856
51	836800	625280
52	857200	646464
53	1212944	868656
54	1184592	832528
55	955856	593008
56	825184	663744
57	607488	423616
58	613008	350752
59	592128	310448
60	581344	387664
61	589952	343408
62	507184	401072
63	635248	522064
64	1178704	982032
66	1533424	1363696
68	2531584	2381632
70	3560624	3349376
72	2003152	1836368
74	2203792	2038224
76	1036496	879360
78	778704	610736
80	648128	528640
82	747600	569360
84	562752	455552
86	604352	498720
88	476144	393088
90	554048	427904
92	866160	660544
94	616160	496048
96	486128	374208
98	454976	376016
100	347712	234880
102	329504	259232
104	484528	363792
106	709088	603792
108	801232	734656
110	651392	589312
112	505040	454656
114	307712	273888
116	227152	190144
118	302544	252352
120	370592	289408
122	266416	217360
124	308560	240336
126	453232	249104
128	688192	468768
132	548336	368064
136	603776	504512
140	900400	812496
144	1845920	1769088
148	523904	463136
152	560224	487936
156	315824	230736
160	216192	138176
164	250512	179200
168	205440	146768
172	225568	160672
176	340192	207264
180	317040	168064
184	241840	135552
188	215472	108480
192	206656	149712
196	227328	154912
200	216624	155776
204	163808	108784
208	223312	114832
212	156960	124848
216	172816	130320
220	213328	176880
224	231168	152896
228	268528	164320
232	249776	182864
236	337216	277648
240	302352	248864
244	193328	154080
248	169264	123136
252	170752	135904
256	327168	242512
264	273936	214768
272	521552	400448
280	448704	332064
288	276928	209088
296	275680	224720
304	259856	204368
312	629952	448656
320	782352	603616
328	336704	273088
336	265952	218256
344	253472	209424
352	300944	237760
360	343520	245504
368	420048	294800
376	386112	249456
384	500224	265408
392	838832	195408
400	551856	178576
408	287680	183632
416	229872	155808
424	223632	171168
432	320048	242128
440	288528	208752
448	352128	285920
456	167920	134336
464	117712	86976
472	112464	78000
480	138240	93584
488	122464	85120
496	170208	126464
504	136336	104704
512	343616	250272
528	313008	150832
544	301456	142128
560	328672	171904
576	302720	151328
592	255808	181488
608	223840	150496
624	169920	117920
640	146624	107040
656	214064	149904
672	173008	125632
688	125024	89184
704	148960	107776
720	153952	105696
736	108432	78176
752	131600	94400
768	133536	88640
784	175424	77712
800	146672	83296
816	103648	83552
832	145344	111008
848	94176	74032
864	102320	82416
880	105008	84976
896	131616	106928
912	135904	105872
928	102048	76960
944	102816	80608
960	113472	92128
976	103376	85120
992	129680	101408
1008	107888	82272
1024	218800	174256
1056	266720	177200
1088	209008	147088
1120	201616	141216
1152	164656	113296
1184	144160	111664
1216	135152	106880
1248	123088	99264
1280	113680	84448
1312	99712	76848
1344	117984	88544
1376	114176	81712
1408	127536	96352
1440	141568	101376
1472	114656	89648
1504	160896	121120
1536	174896	131424
1568	184976	143904
1600	259760	198880
1632	118784	90416
1664	108688	85024
1696	115792	90080
1728	62112	44992
1760	63456	45328
1792	54512	36816
1824	46848	32976
1856	49504	32752
1888	56208	38256
1920	61344	42304
1952	54640	37072
1984	49856	32544
2016	48048	34560
2048	79728	59376
2112	72864	55504
2176	84192	62320
2240	82224	58768
2304	71472	54064
2368	61952	45088
2432	54528	41824
2496	79760	69280
2560	196384	120448
2624	196608	161104
2688	88976	65104
2752	467264	450672
2816	97264	85808
2880	79904	68496
2944	148288	139840
3008	62032	51824
3072	64960	53952
3136	60272	50400
3200	91792	79568
3264	77296	66512
3328	84608	70800
3392	101072	88960
3456	139040	124576
3520	207984	194496
3584	162112	142992
3648	104416	89888
3712	77808	64832
3776	84192	69568
3840	59696	37776
3904	43264	25984
3968	39232	29008
4032	37888	27632
4096	84320	63904
4224	89584	69856
4352	102656	85216
4480	116144	97632
4608	174720	150400
4736	169696	153328
4864	95904	86624
4992	60704	49744
5120	62560	50128
5248	56304	40336
5376	62720	39408
5504	67104	33040
5632	47184	32080
5760	44000	30640
5888	55264	42656
6016	51952	37312
6144	49728	31840
6272	76080	52816
6400	66720	50240
6528	62976	42720
6656	57056	36320
6784	169456	95984
6912	65568	38512
7040	30416	21152
7168	33888	25168
7296	36864	28912
7424	30288	22304
7552	33184	23904
7680	31792	22816
7808	31840	23312
7936	35856	26816
8064	45488	33232
8192	151360	115056
8448	206400	166560
8704	109840	79472
8960	106528	75168
9216	122336	90208
9472	107568	79488
9728	107792	83936
9984	102336	76080
10240	90624	72848
10496	107408	67792
10752	135152	43424
11008	71776	33600
11264	104288	37728
11520	70672	47840
11776	112032	90960
12032	98560	81472
12288	146976	131216
12544	31216	17648
12800	43472	34080
13056	56512	45648
13312	46256	34704
13568	42816	34016
13824	49776	39440
14080	40624	30416
14336	22944	16032
14592	22720	13936
14848	23696	11792
15104	27760	16576
15360	49952	36480
15616	19712	10784
15872	21536	10576
16128	27904	11744
16384	70288	21712
16896	78432	23520
17408	63328	25328
17920	68320	26528
18432	76928	39536
18944	72592	27952
19456	60960	25216
19968	56336	23232
20480	62624	25808
20992	67168	41744
21504	69456	45568
22016	63504	39440
22528	52128	27520
23040	61456	23568
23552	101600	26704
24064	94896	30144
24576	92944	28000
25088	76928	27264
25600	45632	21824
26112	35184	20416
26624	29072	17904
27136	46736	30944
27648	43264	26736
28160	49296	25344
28672	61312	25744
29184	69296	29184
29696	186960	134336
30208	94848	66608
30720	104128	78048
31232	40672	30112
31744	29312	20928
32256	26784	19088
32768	43408	30752
33792	35200	23792
34816	33360	20384
35840	35920	22912
36864	38544	25280
37888	82272	71712
38912	34048	24768
39936	41136	31824
40960	42480	32880
41984	33280	23680
43008	30016	18800
44032	26752	18272
45056	39760	18832
46080	33456	23760
47104	39344	28720
48128	28352	19488
49152	32896	22080
50176	35776	20048
51200	28528	17152
52224	31424	18736
53248	50288	37536
54272	69696	50096
55296	41936	30704
56320	40896	24784
57344	30800	19840
58368	28432	19360
59392	42096	25856
60416	82432	65296
61440	56112	42304
62464	31680	22256
63488	43824	31584
64512	40352	31536
65536	55008	32432
67584	55248	39360
69632	133344	108160
71680	29472	21856
73728	30912	24688
75776	34208	26592
77824	23408	17264
79872	30752	20480
81920	46080	24640
83968	51264	38816
86016	45296	33984
88064	62384	41520
90112	89344	70336
92160	86496	67584
94208	92048	73840
96256	97936	75712
98304	103536	87728
100352	76288	62544
102400	86176	75936
104448	70576	59056
106496	34448	28192
108544	26256	20448
110592	21936	17392
112640	16528	11856
114688	23936	19616
116736	17024	13200
118784	22960	15504
120832	17648	12960
122880	19296	16288
124928	24000	20272
126976	21712	16352
129024	29264	19744
131072	53504	32208
135168	41312	34448
139264	42576	34832
143360	95328	90336
147456	21680	15920
151552	19360	14752
155648	20048	15280
159744	22256	17216
163840	33792	17312
167936	23200	17344
172032	27232	21264
176128	28512	19872
180224	25680	20496
184320	25568	20896
188416	872304	18288
192512	29776	26512
196608	30960	23280
200704	1304976	20736
204800	19728	16944
208896	21200	17632
212992	17472	13920
217088	234016	17728
221184	12288	8944
225280	13184	9984
229376	272336	10288
233472	70416	7024
237568	14928	11120
241664	12816	7792
245760	12064	8288
249856	16768	12128
253952	12336	9984
258048	11952	8912
262144	13040	9872
270336	16544	9968
278528	18160	11008
286720	13360	10304
294912	9776	7456
303104	12000	8928
311296	11408	7648
319488	14256	12272
327680	223024	16864
335872	17280	8416
344064	9920	8208
352256	11840	9632
360448	15280	13840
368640	58128	6368
376832	6944	3600
385024	3568	1872
393216	5392	4144
401408	6672	5696
409600	8544	6800
417792	15488	6448
425984	15952	12640
434176	10224	7552
442368	10336	8528
450560	10768	8064
458752	5552	3088
466944	4672	2960
475136	6416	2192
483328	5184	2048
491520	5760	3568
499712	4176	2096
507904	4736	2272
516096	5696	3104
524288	9584	4480
540672	6384	2864
557056	7776	2944
573440	8800	4496
589824	9200	5008
606208	8208	3424
622592	7856	3232
638976	5056	2256
655360	6768	2880
671744	7856	2576
688128	15248	11984
704512	8816	3728
720896	8560	3584
737280	7968	3008
753664	6528	3168
770048	10048	7584
786432	5168	1952
802816	4368	2704
819200	5040	1456
835584	7648	4384
851968	4112	1632
868352	7328	1408
884736	3472	1904
901120	7696	2208
917504	5776	1520
933888	6960	1888
950272	3536	1184
966656	1920	1056
983040	2512	1824
999424	3648	2896
1015808	1392	1040
1032192	2144	1728
1048576	4832	3760
1081344	3424	2624
1114112	16144	14976
1146880	13920	13248
1179648	4432	3840
1212416	4256	3552
1245184	4384	3552
1277952	4320	2832
1310720	2368	1792
1343488	4016	2784
1376256	9024	5552
1409024	66720	9232
1441792	23888	5776
1474560	8368	3616
1507328	10960	4560
1540096	22848	4848
1572864	10528	2288
1605632	13296	2992
1638400	11440	3872
1671168	10864	2800
1703936	8512	1952
1736704	7424	2224
1769472	9152	3712
1802240	6912	3888
1835008	5616	2816
1867776	5936	3024
1900544	6032	3072
1933312	38016	2768
1966080	10880	2144
1998848	6000	2576
2031616	7408	2896
2064384	3856	2368
2097152	8512	5088
2162688	22032	5872
2228224	8288	5136
2293760	6640	4352
2359296	6576	4976
2424832	6512	4240
2490368	5872	3856
2555904	4736	3680
2621440	4528	3712
2686976	5904	5056
2752512	8416	6704
2818048	17376	15392
2883584	8896	6272
2949120	8992	7232
3014656	9392	6704
3080192	10288	7728
3145728	8736	7312
3211264	7600	5152
3276800	7344	5312
3342336	10816	8224
3407872	7120	4448
3473408	6624	4656
3538944	6080	4656
3604480	5808	4256
3670016	4176	3008
3735552	5360	3808
3801088	4272	3248
3866624	4944	4448
3932160	3632	2848
3997696	4752	4336
4063232	5632	4704
4128768	4928	3968
4194304	8560	7216
4325376	10896	8608
4456448	9936	7008
4587520	12640	6336
4718592	11312	6528
4849664	14352	7600
4980736	15152	6864
5111808	13536	6560
5242880	14912	6944
5373952	9792	6288
5505024	10512	5888
5636096	14144	6800
5767168	15600	7904
5898240	15216	7376
6029312	15440	7408
6160384	13616	7296
6291456	14880	8000
6422528	15664	6672
6553600	16608	8272
6684672	14672	7056
6815744	12912	6496
6946816	12224	6640
7077888	11376	6752
7208960	16096	8176
7340032	13136	7408
7471104	12608	6832
7602176	10192	5968
7733248	11760	6848
7864320	11904	7520
7995392	11152	6928
8126464	12912	7696
8257536	11504	6160
8388608	23776	14480
8650752	22016	11424
8912896	24288	14480
9175040	20096	12288
9437184	21936	12928
9699328	21120	11136
9961472	20848	12112
10223616	19680	9920
10485760	20416	8944
10747904	18912	6656
11010048	15760	4944
11272192	16960	3296
11534336	20000	5200
11796480	18976	3200
12058624	21584	4512
12320768	19360	3408
12582912	19424	3568
12845056	16480	3776
13107200	12128	1664
13369344	11408	928
13631488	11504	592
13893632	14864	608
14155776	12672	480
14417920	17728	528
14680064	15296	576
14942208	16944	336
15204352	18496	320
15466496	29264	560
15728640	38144	1184
15990784	23408	704
16252928	27344	944
16515072	33824	1744
16777216	1193424	36528
17301504	648240	26672
17825792	813664	34336
18350080	1841184	62544
18874368	1117328	50560
19398656	149744	10592
19922944	64	64
20447232	16	16
20971520	48	48
21495808	32	32
22020096	48	48
22544384	32	32
23068672	16	16
23592960	0	0
24117248	64	64
24641536	0	0
25165824	32	32
25690112	0	0
26214400	0	0
26738688	0	0
27262976	0	0
27787264	0	0
28311552	0	0
28835840	0	0
29360128	16	16
29884416	0	0
30408704	0	0
30932992	80	80
31457280	16	16
31981568	48	48
32505856	0	0
33030144	48	48
33554432	3360	3360
34603008	3008	2768
35651584	4432	4432
36700160	8208	8208
37748736	2960	2960
38797312	16	16
39845888	16	16
40894464	48	48
41943040	16	16
42991616	16	16
44040192	16	16
45088768	16	16
46137344	16	16
47185920	0	0
48234496	16	16
49283072	32	32
50331648	0	0
51380224	656	448
52428800	4672	4672
53477376	1632	1632
54525952	1872	1872
55574528	4512	4512
56623104	1568	1456
57671680	544	544
58720256	48	48
59768832	16	16
60817408	0	0
61865984	0	0
62914560	0	0
63963136	16	16
65011712	0	0
66060288	0	0
67108864	16	16
69206016	2656	2640
71303168	3072	3072
73400320	2704	2704
75497472	848	848
77594624	16	16
79691776	32	32
81788928	0	0
83886080	0	0
85983232	64	64
88080384	1392	1392
90177536	1744	1744
92274688	2080	2080
94371840	272	272
96468992	0	0
98566144	0	0
100663296	0	0
102760448	0	0
104857600	0	0
106954752	1088	1088
109051904	848	848
111149056	1024	1024
113246208	0	0
115343360	0	0
117440512	0	0
119537664	0	0
121634816	0	0
123731968	0	0
125829120	2112	2112
127926272	992	992
130023424	240	64
132120576	0	0
134217728	0	0
138412032	16	16
142606336	1536	1536
146800640	976	976
150994944	0	0
155189248	0	0
159383552	0	0
163577856	1056	1056
167772160	0	0
171966464	0	0
176160768	0	0
180355072	944	944
184549376	0	0
188743680	0	0
192937984	16	16
197132288	160	160
201326592	0	0
205520896	0	0
209715200	0	0
213909504	160	160
218103808	48	48
222298112	0	0
226492416	0	0
230686720	0	0
234881024	192	192
239075328	0	0
243269632	0	0
247463936	0	0
251658240	0	0
255852544	0	0
260046848	0	0
264241152	0	0
268435456	64	64
276824064	0	0
285212672	0	0
293601280	96	96
301989888	0	0
310378496	0	0
318767104	0	0
327155712	0	0
335544320	0	0
343932928	0	0
352321536	0	0
360710144	0	0
369098752	0	0
377487360	0	0
385875968	0	0
394264576	0	0
402653184	0	0
411041792	0	0
419430400	0	0
427819008	0	0
436207616	0	0
444596224	0	0
452984832	0	0
461373440	0	0
469762048	0	0
478150656	0	0
486539264	0	0
494927872	0	0
503316480	0	0
511705088	0	0
520093696	0	0
528482304	0	0
536870912	0	0
553648128	0	0
570425344	0	0
587202560	0	0
603979776	0	0
620756992	0	0
637534208	0	0
654311424	0	0
671088640	0	0
687865856	0	0
704643072	0	0
721420288	0	0
738197504	0	0
754974720	0	0
771751936	0	0
788529152	0	0
805306368	0	0
822083584	0	0
838860800	0	0
855638016	0	0
872415232	0	0
889192448	0	0
905969664	0	0
922746880	0	0
939524096	0	0
956301312	0	0
973078528	0	0
989855744	0	0
1006632960	0	0
1023410176	0	0
1040187392	0	0
1056964608	0	0
1073741824	0	0
1107296256	0	0
1140850688	0	0
1174405120	0	0
1207959552	0	0
1241513984	0	0
1275068416	0	0
1308622848	0	0
1342177280	0	0
1375731712	0	0
1409286144	0	0
1442840576	0	0
1476395008	0	0
1509949440	0	0
1543503872	0	0
1577058304	0	0
1610612736	0	0
1644167168	0	0
1677721600	0	0
1711276032	0	0
1744830464	0	0
1778384896	0	0
1811939328	0	0
1845493760	0	0
1879048192	0	0
1912602624	0	0
1946157056	0	0
1979711488	0	0
2013265920	0	0
2046820352	0	0
2080374784	0	0
2113929216	0	0
2147483648	0	0
2214592512	0	0
2281701376	0	0
2348810240	0	0
2415919104	0	0
2483027968	0	0
2550136832	0	0
2617245696	0	0
2684354560	0	0
2751463424	0	0
2818572288	0	0
2885681152	0	0
2952790016	0	0
3019898880	0	0
3087007744	0	0
3154116608	0	0
3221225472	0	0
3288334336	0	0
3355443200	0	0
3422552064	0	0
3489660928	0	0
3556769792	0	0
3623878656	0	0
3690987520	0	0
3758096384	0	0
3825205248	0	0
3892314112	0	0
3959422976	0	0
4026531840	0	0
4093640704	0	0
4160749568	0	0
4227858432	0	0
~~~~~~~~~~Reuse Distance Profiler output end~~~~~~~~~~

DRAM Statistics
 CHANNEL 0
 RQ ROW_BUFFER_HIT:    1795720  ROW_BUFFER_MISS:    6388585
 DBUS AVG_CONGESTED_CYCLE:    3.99105
 WQ ROW_BUFFER_HIT:    1313155  ROW_BUFFER_MISS:    6348455  FULL:          0


CPU 0 Branch Prediction Accuracy: 90.1346% MPKI: 13.2183 Average ROB Occupancy at Mispredict: 70.4063
Branch type MPKI
BRANCH_DIRECT_JUMP: 0.003164
BRANCH_INDIRECT: 0.00134733
BRANCH_CONDITIONAL: 13.1978
BRANCH_DIRECT_CALL: 0.0159293
BRANCH_INDIRECT_CALL: 0
BRANCH_RETURN: 1.33333e-06

