
*** ChampSim Multicore Out-of-Order Simulator ***

Warmup Instructions: 500000000
Simulation Instructions: 1500000000
Number of CPUs: 1
Off-chip DRAM Size: 4 GiB Channels: 1 Width: 64-bit Data Rate: 3200 MT/s

VirtualMemory physical capacity: 8588881920 num_ppages: 2096895
VirtualMemory page size: 4096 log2_page_size: 12

CPU 0 runs traces/628.pop2_s-17B.champsimtrace.xz
CPU 0 Bimodal branch predictor
Basic BTB sets: 1024 ways: 8 indirect buffer size: 4096 RAS size: 64
Initializing LRU.
Initializing LRU.
Initializing LRU.
Initializing LRU.
Initializing rdLRU.
Initializing LRU.
Initializing LRU.
Heartbeat CPU 0 instructions: 10000000 cycles: 2812502 heartbeat IPC: 3.55555 cumulative IPC: 3.55555 (Simulation time: 0 hr 0 min 54 sec) 
Heartbeat CPU 0 instructions: 20000002 cycles: 5624348 heartbeat IPC: 3.55638 cumulative IPC: 3.55597 (Simulation time: 0 hr 1 min 49 sec) 
Heartbeat CPU 0 instructions: 30000004 cycles: 8435563 heartbeat IPC: 3.55718 cumulative IPC: 3.55637 (Simulation time: 0 hr 2 min 37 sec) 
Heartbeat CPU 0 instructions: 40000003 cycles: 11245323 heartbeat IPC: 3.55902 cumulative IPC: 3.55703 (Simulation time: 0 hr 3 min 28 sec) 
Heartbeat CPU 0 instructions: 50000001 cycles: 14054029 heartbeat IPC: 3.56036 cumulative IPC: 3.5577 (Simulation time: 0 hr 4 min 16 sec) 
Heartbeat CPU 0 instructions: 60000001 cycles: 16862899 heartbeat IPC: 3.56015 cumulative IPC: 3.55811 (Simulation time: 0 hr 5 min 6 sec) 
Heartbeat CPU 0 instructions: 70000000 cycles: 19667197 heartbeat IPC: 3.56595 cumulative IPC: 3.55923 (Simulation time: 0 hr 5 min 54 sec) 
Heartbeat CPU 0 instructions: 80000001 cycles: 22284138 heartbeat IPC: 3.82126 cumulative IPC: 3.59 (Simulation time: 0 hr 6 min 46 sec) 
Heartbeat CPU 0 instructions: 90000001 cycles: 25042092 heartbeat IPC: 3.62588 cumulative IPC: 3.59395 (Simulation time: 0 hr 7 min 29 sec) 
Heartbeat CPU 0 instructions: 100000000 cycles: 27833889 heartbeat IPC: 3.58192 cumulative IPC: 3.59274 (Simulation time: 0 hr 8 min 23 sec) 
Heartbeat CPU 0 instructions: 110000003 cycles: 30496832 heartbeat IPC: 3.75524 cumulative IPC: 3.60693 (Simulation time: 0 hr 9 min 14 sec) 
Heartbeat CPU 0 instructions: 120000004 cycles: 33365908 heartbeat IPC: 3.48544 cumulative IPC: 3.59649 (Simulation time: 0 hr 9 min 48 sec) 
Heartbeat CPU 0 instructions: 130000001 cycles: 36220518 heartbeat IPC: 3.5031 cumulative IPC: 3.58913 (Simulation time: 0 hr 10 min 27 sec) 
Heartbeat CPU 0 instructions: 140000001 cycles: 39013610 heartbeat IPC: 3.58026 cumulative IPC: 3.58849 (Simulation time: 0 hr 10 min 59 sec) 
Heartbeat CPU 0 instructions: 150000001 cycles: 41716640 heartbeat IPC: 3.69955 cumulative IPC: 3.59569 (Simulation time: 0 hr 11 min 21 sec) 
Heartbeat CPU 0 instructions: 160000000 cycles: 44542293 heartbeat IPC: 3.539 cumulative IPC: 3.59209 (Simulation time: 0 hr 11 min 41 sec) 
Heartbeat CPU 0 instructions: 170000000 cycles: 47316192 heartbeat IPC: 3.60503 cumulative IPC: 3.59285 (Simulation time: 0 hr 12 min 4 sec) 
Heartbeat CPU 0 instructions: 180000004 cycles: 50098091 heartbeat IPC: 3.59467 cumulative IPC: 3.59295 (Simulation time: 0 hr 12 min 38 sec) 
Heartbeat CPU 0 instructions: 190000003 cycles: 52908382 heartbeat IPC: 3.55835 cumulative IPC: 3.59111 (Simulation time: 0 hr 13 min 32 sec) 
Heartbeat CPU 0 instructions: 200000001 cycles: 55719312 heartbeat IPC: 3.55754 cumulative IPC: 3.58942 (Simulation time: 0 hr 14 min 34 sec) 
Heartbeat CPU 0 instructions: 210000000 cycles: 58527418 heartbeat IPC: 3.56112 cumulative IPC: 3.58806 (Simulation time: 0 hr 15 min 36 sec) 
Heartbeat CPU 0 instructions: 220000004 cycles: 61331110 heartbeat IPC: 3.56673 cumulative IPC: 3.58709 (Simulation time: 0 hr 16 min 37 sec) 
Heartbeat CPU 0 instructions: 230000003 cycles: 64139029 heartbeat IPC: 3.56136 cumulative IPC: 3.58596 (Simulation time: 0 hr 17 min 30 sec) 
Heartbeat CPU 0 instructions: 240000001 cycles: 66948016 heartbeat IPC: 3.56 cumulative IPC: 3.58487 (Simulation time: 0 hr 18 min 28 sec) 
Heartbeat CPU 0 instructions: 250000001 cycles: 69745226 heartbeat IPC: 3.57499 cumulative IPC: 3.58447 (Simulation time: 0 hr 19 min 15 sec) 
Heartbeat CPU 0 instructions: 260000002 cycles: 72367003 heartbeat IPC: 3.81421 cumulative IPC: 3.5928 (Simulation time: 0 hr 20 min 1 sec) 
Heartbeat CPU 0 instructions: 270000001 cycles: 75134300 heartbeat IPC: 3.61363 cumulative IPC: 3.59357 (Simulation time: 0 hr 20 min 48 sec) 
Heartbeat CPU 0 instructions: 280000000 cycles: 77932921 heartbeat IPC: 3.57319 cumulative IPC: 3.59283 (Simulation time: 0 hr 21 min 36 sec) 
Heartbeat CPU 0 instructions: 290000002 cycles: 80581395 heartbeat IPC: 3.77576 cumulative IPC: 3.59885 (Simulation time: 0 hr 22 min 24 sec) 
Heartbeat CPU 0 instructions: 300000002 cycles: 83444316 heartbeat IPC: 3.49294 cumulative IPC: 3.59521 (Simulation time: 0 hr 23 min 7 sec) 
Heartbeat CPU 0 instructions: 310000001 cycles: 86321490 heartbeat IPC: 3.47563 cumulative IPC: 3.59123 (Simulation time: 0 hr 23 min 54 sec) 
Heartbeat CPU 0 instructions: 320000002 cycles: 89105543 heartbeat IPC: 3.59189 cumulative IPC: 3.59125 (Simulation time: 0 hr 24 min 29 sec) 
Heartbeat CPU 0 instructions: 330000001 cycles: 91764464 heartbeat IPC: 3.76092 cumulative IPC: 3.59616 (Simulation time: 0 hr 25 min 3 sec) 
Heartbeat CPU 0 instructions: 340000001 cycles: 94556596 heartbeat IPC: 3.58149 cumulative IPC: 3.59573 (Simulation time: 0 hr 25 min 40 sec) 
Heartbeat CPU 0 instructions: 350000002 cycles: 97369811 heartbeat IPC: 3.55465 cumulative IPC: 3.59454 (Simulation time: 0 hr 26 min 20 sec) 
Heartbeat CPU 0 instructions: 360000001 cycles: 100160736 heartbeat IPC: 3.58304 cumulative IPC: 3.59422 (Simulation time: 0 hr 27 min 5 sec) 
Heartbeat CPU 0 instructions: 370000003 cycles: 102995378 heartbeat IPC: 3.52778 cumulative IPC: 3.59239 (Simulation time: 0 hr 27 min 41 sec) 
Heartbeat CPU 0 instructions: 380000004 cycles: 105834961 heartbeat IPC: 3.52164 cumulative IPC: 3.5905 (Simulation time: 0 hr 28 min 17 sec) 
Heartbeat CPU 0 instructions: 390000000 cycles: 108671220 heartbeat IPC: 3.52577 cumulative IPC: 3.58881 (Simulation time: 0 hr 28 min 54 sec) 
Heartbeat CPU 0 instructions: 400000003 cycles: 111499599 heartbeat IPC: 3.5356 cumulative IPC: 3.58746 (Simulation time: 0 hr 29 min 30 sec) 
Heartbeat CPU 0 instructions: 410000000 cycles: 114324336 heartbeat IPC: 3.54015 cumulative IPC: 3.58629 (Simulation time: 0 hr 30 min 6 sec) 
Heartbeat CPU 0 instructions: 420000002 cycles: 117139555 heartbeat IPC: 3.55212 cumulative IPC: 3.58547 (Simulation time: 0 hr 30 min 41 sec) 
Heartbeat CPU 0 instructions: 430000001 cycles: 119949960 heartbeat IPC: 3.55821 cumulative IPC: 3.58483 (Simulation time: 0 hr 31 min 16 sec) 
Heartbeat CPU 0 instructions: 440000002 cycles: 122602598 heartbeat IPC: 3.76983 cumulative IPC: 3.58883 (Simulation time: 0 hr 32 min 4 sec) 
Heartbeat CPU 0 instructions: 450000004 cycles: 125301441 heartbeat IPC: 3.70529 cumulative IPC: 3.59134 (Simulation time: 0 hr 32 min 59 sec) 
Heartbeat CPU 0 instructions: 460000003 cycles: 128104305 heartbeat IPC: 3.56778 cumulative IPC: 3.59082 (Simulation time: 0 hr 33 min 58 sec) 
Heartbeat CPU 0 instructions: 470000000 cycles: 130789256 heartbeat IPC: 3.72446 cumulative IPC: 3.59357 (Simulation time: 0 hr 34 min 46 sec) 
Heartbeat CPU 0 instructions: 480000001 cycles: 133594722 heartbeat IPC: 3.56447 cumulative IPC: 3.59296 (Simulation time: 0 hr 35 min 25 sec) 
Heartbeat CPU 0 instructions: 490000002 cycles: 136538208 heartbeat IPC: 3.39733 cumulative IPC: 3.58874 (Simulation time: 0 hr 36 min 14 sec) 
Heartbeat CPU 0 instructions: 500000000 cycles: 139301534 heartbeat IPC: 3.61883 cumulative IPC: 3.58934 (Simulation time: 0 hr 36 min 57 sec) 

Warmup complete CPU 0 instructions: 500000004 cycles: 139301535 (Simulation time: 0 hr 36 min 57 sec) 

Heartbeat CPU 0 instructions: 510000001 cycles: 143899195 heartbeat IPC: 2.17502 cumulative IPC: 2.17502 (Simulation time: 0 hr 37 min 45 sec) 
Heartbeat CPU 0 instructions: 520000002 cycles: 150377480 heartbeat IPC: 1.54362 cumulative IPC: 1.80571 (Simulation time: 0 hr 38 min 59 sec) 
Heartbeat CPU 0 instructions: 530000002 cycles: 155177337 heartbeat IPC: 2.0834 cumulative IPC: 1.88967 (Simulation time: 0 hr 39 min 52 sec) 
Heartbeat CPU 0 instructions: 540000000 cycles: 161722826 heartbeat IPC: 1.52777 cumulative IPC: 1.78402 (Simulation time: 0 hr 41 min 12 sec) 
Heartbeat CPU 0 instructions: 550000000 cycles: 166864881 heartbeat IPC: 1.94475 cumulative IPC: 1.814 (Simulation time: 0 hr 42 min 18 sec) 
Heartbeat CPU 0 instructions: 560000004 cycles: 171923044 heartbeat IPC: 1.977 cumulative IPC: 1.83928 (Simulation time: 0 hr 43 min 7 sec) 
Heartbeat CPU 0 instructions: 570000001 cycles: 176987674 heartbeat IPC: 1.97448 cumulative IPC: 1.85745 (Simulation time: 0 hr 43 min 55 sec) 
Heartbeat CPU 0 instructions: 580000002 cycles: 182084897 heartbeat IPC: 1.96185 cumulative IPC: 1.86989 (Simulation time: 0 hr 44 min 43 sec) 
Heartbeat CPU 0 instructions: 590000003 cycles: 187140687 heartbeat IPC: 1.97793 cumulative IPC: 1.8813 (Simulation time: 0 hr 45 min 39 sec) 
Heartbeat CPU 0 instructions: 600000002 cycles: 192167314 heartbeat IPC: 1.98941 cumulative IPC: 1.89158 (Simulation time: 0 hr 47 min 3 sec) 
Heartbeat CPU 0 instructions: 610000001 cycles: 197327058 heartbeat IPC: 1.93808 cumulative IPC: 1.89572 (Simulation time: 0 hr 48 min 0 sec) 
Heartbeat CPU 0 instructions: 620000001 cycles: 201338217 heartbeat IPC: 2.49305 cumulative IPC: 1.93434 (Simulation time: 0 hr 48 min 35 sec) 
Heartbeat CPU 0 instructions: 630000001 cycles: 207187081 heartbeat IPC: 1.70973 cumulative IPC: 1.91499 (Simulation time: 0 hr 49 min 19 sec) 
Heartbeat CPU 0 instructions: 640000004 cycles: 212435207 heartbeat IPC: 1.90544 cumulative IPC: 1.9143 (Simulation time: 0 hr 50 min 20 sec) 
Heartbeat CPU 0 instructions: 650000003 cycles: 219465422 heartbeat IPC: 1.42243 cumulative IPC: 1.87117 (Simulation time: 0 hr 51 min 53 sec) 
Heartbeat CPU 0 instructions: 660000003 cycles: 227999262 heartbeat IPC: 1.17181 cumulative IPC: 1.80388 (Simulation time: 0 hr 52 min 58 sec) 
Heartbeat CPU 0 instructions: 670000003 cycles: 233158093 heartbeat IPC: 1.93842 cumulative IPC: 1.81127 (Simulation time: 0 hr 53 min 29 sec) 
Heartbeat CPU 0 instructions: 680000004 cycles: 240431376 heartbeat IPC: 1.3749 cumulative IPC: 1.77989 (Simulation time: 0 hr 54 min 10 sec) 
Heartbeat CPU 0 instructions: 690000000 cycles: 244344392 heartbeat IPC: 2.55557 cumulative IPC: 1.80879 (Simulation time: 0 hr 54 min 30 sec) 
Heartbeat CPU 0 instructions: 700000001 cycles: 249974857 heartbeat IPC: 1.77605 cumulative IPC: 1.80712 (Simulation time: 0 hr 55 min 5 sec) 
Heartbeat CPU 0 instructions: 710000003 cycles: 256077503 heartbeat IPC: 1.63863 cumulative IPC: 1.79832 (Simulation time: 0 hr 55 min 41 sec) 
Heartbeat CPU 0 instructions: 720000000 cycles: 261838393 heartbeat IPC: 1.73584 cumulative IPC: 1.79538 (Simulation time: 0 hr 56 min 20 sec) 
Heartbeat CPU 0 instructions: 730000001 cycles: 267799235 heartbeat IPC: 1.67762 cumulative IPC: 1.78992 (Simulation time: 0 hr 57 min 9 sec) 
Heartbeat CPU 0 instructions: 740000000 cycles: 272859305 heartbeat IPC: 1.97626 cumulative IPC: 1.79698 (Simulation time: 0 hr 57 min 56 sec) 
Heartbeat CPU 0 instructions: 750000003 cycles: 277931939 heartbeat IPC: 1.97136 cumulative IPC: 1.80336 (Simulation time: 0 hr 58 min 42 sec) 
Heartbeat CPU 0 instructions: 760000000 cycles: 283032886 heartbeat IPC: 1.96042 cumulative IPC: 1.80893 (Simulation time: 0 hr 59 min 29 sec) 
Heartbeat CPU 0 instructions: 770000003 cycles: 288117241 heartbeat IPC: 1.96682 cumulative IPC: 1.81432 (Simulation time: 1 hr 0 min 16 sec) 
Heartbeat CPU 0 instructions: 780000003 cycles: 293280291 heartbeat IPC: 1.93684 cumulative IPC: 1.81843 (Simulation time: 1 hr 1 min 3 sec) 
Heartbeat CPU 0 instructions: 790000000 cycles: 298499187 heartbeat IPC: 1.91611 cumulative IPC: 1.82163 (Simulation time: 1 hr 1 min 52 sec) 
Heartbeat CPU 0 instructions: 800000002 cycles: 303029147 heartbeat IPC: 2.20753 cumulative IPC: 1.83231 (Simulation time: 1 hr 2 min 38 sec) 
Heartbeat CPU 0 instructions: 810000001 cycles: 308054466 heartbeat IPC: 1.98992 cumulative IPC: 1.83701 (Simulation time: 1 hr 3 min 40 sec) 
Heartbeat CPU 0 instructions: 820000002 cycles: 313238926 heartbeat IPC: 1.92884 cumulative IPC: 1.83974 (Simulation time: 1 hr 4 min 49 sec) 
Heartbeat CPU 0 instructions: 830000002 cycles: 319798501 heartbeat IPC: 1.52449 cumulative IPC: 1.82829 (Simulation time: 1 hr 5 min 56 sec) 
Heartbeat CPU 0 instructions: 840000001 cycles: 325938937 heartbeat IPC: 1.62855 cumulative IPC: 1.82171 (Simulation time: 1 hr 6 min 59 sec) 
Heartbeat CPU 0 instructions: 850000002 cycles: 333861307 heartbeat IPC: 1.26225 cumulative IPC: 1.79893 (Simulation time: 1 hr 8 min 7 sec) 
Heartbeat CPU 0 instructions: 860000000 cycles: 339742322 heartbeat IPC: 1.70039 cumulative IPC: 1.79604 (Simulation time: 1 hr 9 min 9 sec) 
Heartbeat CPU 0 instructions: 870000001 cycles: 345588366 heartbeat IPC: 1.71056 cumulative IPC: 1.79362 (Simulation time: 1 hr 9 min 54 sec) 
Heartbeat CPU 0 instructions: 880000000 cycles: 350990921 heartbeat IPC: 1.85098 cumulative IPC: 1.79508 (Simulation time: 1 hr 10 min 51 sec) 
Heartbeat CPU 0 instructions: 890000001 cycles: 357106778 heartbeat IPC: 1.63509 cumulative IPC: 1.79059 (Simulation time: 1 hr 11 min 33 sec) 
Heartbeat CPU 0 instructions: 900000002 cycles: 362360519 heartbeat IPC: 1.90341 cumulative IPC: 1.79325 (Simulation time: 1 hr 12 min 20 sec) 
Heartbeat CPU 0 instructions: 910000004 cycles: 368649437 heartbeat IPC: 1.5901 cumulative IPC: 1.78768 (Simulation time: 1 hr 13 min 13 sec) 
Heartbeat CPU 0 instructions: 920000004 cycles: 373704898 heartbeat IPC: 1.97806 cumulative IPC: 1.79178 (Simulation time: 1 hr 14 min 13 sec) 
Heartbeat CPU 0 instructions: 930000000 cycles: 378724012 heartbeat IPC: 1.99238 cumulative IPC: 1.79599 (Simulation time: 1 hr 15 min 22 sec) 
Heartbeat CPU 0 instructions: 940000004 cycles: 383710166 heartbeat IPC: 2.00555 cumulative IPC: 1.80026 (Simulation time: 1 hr 16 min 40 sec) 
Heartbeat CPU 0 instructions: 950000000 cycles: 388675647 heartbeat IPC: 2.0139 cumulative IPC: 1.80452 (Simulation time: 1 hr 17 min 33 sec) 
Heartbeat CPU 0 instructions: 960000003 cycles: 393676045 heartbeat IPC: 1.99984 cumulative IPC: 1.80836 (Simulation time: 1 hr 18 min 39 sec) 
Heartbeat CPU 0 instructions: 970000002 cycles: 398816905 heartbeat IPC: 1.9452 cumulative IPC: 1.81107 (Simulation time: 1 hr 19 min 48 sec) 
Heartbeat CPU 0 instructions: 980000003 cycles: 404045898 heartbeat IPC: 1.91241 cumulative IPC: 1.81307 (Simulation time: 1 hr 21 min 10 sec) 
Heartbeat CPU 0 instructions: 990000002 cycles: 408109920 heartbeat IPC: 2.46062 cumulative IPC: 1.82286 (Simulation time: 1 hr 22 min 15 sec) 
Heartbeat CPU 0 instructions: 1000000001 cycles: 413837185 heartbeat IPC: 1.74603 cumulative IPC: 1.82126 (Simulation time: 1 hr 23 min 30 sec) 
Heartbeat CPU 0 instructions: 1010000003 cycles: 419889686 heartbeat IPC: 1.65221 cumulative IPC: 1.81761 (Simulation time: 1 hr 24 min 29 sec) 
Heartbeat CPU 0 instructions: 1020000000 cycles: 426164106 heartbeat IPC: 1.59377 cumulative IPC: 1.81271 (Simulation time: 1 hr 25 min 33 sec) 
Heartbeat CPU 0 instructions: 1030000002 cycles: 434533462 heartbeat IPC: 1.19484 cumulative IPC: 1.7952 (Simulation time: 1 hr 27 min 15 sec) 
Heartbeat CPU 0 instructions: 1040000000 cycles: 439979611 heartbeat IPC: 1.83616 cumulative IPC: 1.79594 (Simulation time: 1 hr 28 min 13 sec) 
Heartbeat CPU 0 instructions: 1050000000 cycles: 446760116 heartbeat IPC: 1.47482 cumulative IPC: 1.78886 (Simulation time: 1 hr 29 min 22 sec) 
Heartbeat CPU 0 instructions: 1060000003 cycles: 451276972 heartbeat IPC: 2.21393 cumulative IPC: 1.79501 (Simulation time: 1 hr 30 min 8 sec) 
Heartbeat CPU 0 instructions: 1070000000 cycles: 458143247 heartbeat IPC: 1.45639 cumulative IPC: 1.78772 (Simulation time: 1 hr 31 min 4 sec) 
Heartbeat CPU 0 instructions: 1080000002 cycles: 462927197 heartbeat IPC: 2.09032 cumulative IPC: 1.79219 (Simulation time: 1 hr 31 min 32 sec) 
Heartbeat CPU 0 instructions: 1090000001 cycles: 469185352 heartbeat IPC: 1.59791 cumulative IPC: 1.78851 (Simulation time: 1 hr 32 min 12 sec) 
Heartbeat CPU 0 instructions: 1100000000 cycles: 474539450 heartbeat IPC: 1.86773 cumulative IPC: 1.78977 (Simulation time: 1 hr 33 min 1 sec) 
Heartbeat CPU 0 instructions: 1110000001 cycles: 479591058 heartbeat IPC: 1.97957 cumulative IPC: 1.79259 (Simulation time: 1 hr 33 min 47 sec) 
Heartbeat CPU 0 instructions: 1120000003 cycles: 484608256 heartbeat IPC: 1.99314 cumulative IPC: 1.79551 (Simulation time: 1 hr 34 min 33 sec) 
Heartbeat CPU 0 instructions: 1130000002 cycles: 489671289 heartbeat IPC: 1.9751 cumulative IPC: 1.7981 (Simulation time: 1 hr 35 min 18 sec) 
Heartbeat CPU 0 instructions: 1140000000 cycles: 494693263 heartbeat IPC: 1.99125 cumulative IPC: 1.80083 (Simulation time: 1 hr 36 min 4 sec) 
Heartbeat CPU 0 instructions: 1150000001 cycles: 499721758 heartbeat IPC: 1.98867 cumulative IPC: 1.80345 (Simulation time: 1 hr 36 min 49 sec) 
Heartbeat CPU 0 instructions: 1160000000 cycles: 504981529 heartbeat IPC: 1.90122 cumulative IPC: 1.80486 (Simulation time: 1 hr 37 min 34 sec) 
Heartbeat CPU 0 instructions: 1170000003 cycles: 509229683 heartbeat IPC: 2.35396 cumulative IPC: 1.81116 (Simulation time: 1 hr 38 min 11 sec) 
Heartbeat CPU 0 instructions: 1180000004 cycles: 514670124 heartbeat IPC: 1.83809 cumulative IPC: 1.81155 (Simulation time: 1 hr 38 min 53 sec) 
Heartbeat CPU 0 instructions: 1190000001 cycles: 519845299 heartbeat IPC: 1.9323 cumulative IPC: 1.81319 (Simulation time: 1 hr 39 min 31 sec) 
Heartbeat CPU 0 instructions: 1200000003 cycles: 527169382 heartbeat IPC: 1.36536 cumulative IPC: 1.80474 (Simulation time: 1 hr 40 min 23 sec) 
Heartbeat CPU 0 instructions: 1210000001 cycles: 533728505 heartbeat IPC: 1.52459 cumulative IPC: 1.80008 (Simulation time: 1 hr 41 min 15 sec) 
Heartbeat CPU 0 instructions: 1220000003 cycles: 540854783 heartbeat IPC: 1.40326 cumulative IPC: 1.79304 (Simulation time: 1 hr 41 min 58 sec) 
Heartbeat CPU 0 instructions: 1230000002 cycles: 548361274 heartbeat IPC: 1.33218 cumulative IPC: 1.78458 (Simulation time: 1 hr 42 min 42 sec) 
Heartbeat CPU 0 instructions: 1240000000 cycles: 552096335 heartbeat IPC: 2.67733 cumulative IPC: 1.79266 (Simulation time: 1 hr 43 min 3 sec) 
Heartbeat CPU 0 instructions: 1250000001 cycles: 557928851 heartbeat IPC: 1.71453 cumulative IPC: 1.79157 (Simulation time: 1 hr 43 min 43 sec) 
Heartbeat CPU 0 instructions: 1260000003 cycles: 563943614 heartbeat IPC: 1.66258 cumulative IPC: 1.78974 (Simulation time: 1 hr 44 min 17 sec) 
Heartbeat CPU 0 instructions: 1270000001 cycles: 569652483 heartbeat IPC: 1.75166 cumulative IPC: 1.78924 (Simulation time: 1 hr 44 min 57 sec) 
Heartbeat CPU 0 instructions: 1280000001 cycles: 575772029 heartbeat IPC: 1.63411 cumulative IPC: 1.78706 (Simulation time: 1 hr 45 min 51 sec) 
Heartbeat CPU 0 instructions: 1290000003 cycles: 580781699 heartbeat IPC: 1.99614 cumulative IPC: 1.78943 (Simulation time: 1 hr 47 min 17 sec) 
Heartbeat CPU 0 instructions: 1300000003 cycles: 585810438 heartbeat IPC: 1.98857 cumulative IPC: 1.79168 (Simulation time: 1 hr 48 min 44 sec) 
Heartbeat CPU 0 instructions: 1310000003 cycles: 590803191 heartbeat IPC: 2.0029 cumulative IPC: 1.79401 (Simulation time: 1 hr 49 min 39 sec) 
Heartbeat CPU 0 instructions: 1320000001 cycles: 595757971 heartbeat IPC: 2.01825 cumulative IPC: 1.79645 (Simulation time: 1 hr 50 min 25 sec) 
Heartbeat CPU 0 instructions: 1330000000 cycles: 600793754 heartbeat IPC: 1.98579 cumulative IPC: 1.79851 (Simulation time: 1 hr 51 min 11 sec) 
Heartbeat CPU 0 instructions: 1340000002 cycles: 605978353 heartbeat IPC: 1.92879 cumulative IPC: 1.79996 (Simulation time: 1 hr 51 min 56 sec) 
Heartbeat CPU 0 instructions: 1350000003 cycles: 610968228 heartbeat IPC: 2.00406 cumulative IPC: 1.80212 (Simulation time: 1 hr 52 min 39 sec) 
Heartbeat CPU 0 instructions: 1360000003 cycles: 615659777 heartbeat IPC: 2.13149 cumulative IPC: 1.80536 (Simulation time: 1 hr 53 min 17 sec) 
Heartbeat CPU 0 instructions: 1370000002 cycles: 620746956 heartbeat IPC: 1.96573 cumulative IPC: 1.80706 (Simulation time: 1 hr 53 min 55 sec) 
Heartbeat CPU 0 instructions: 1380000000 cycles: 627467044 heartbeat IPC: 1.48808 cumulative IPC: 1.80267 (Simulation time: 1 hr 54 min 45 sec) 
Heartbeat CPU 0 instructions: 1390000003 cycles: 633787147 heartbeat IPC: 1.58225 cumulative IPC: 1.79985 (Simulation time: 1 hr 55 min 31 sec) 
Heartbeat CPU 0 instructions: 1400000000 cycles: 641826550 heartbeat IPC: 1.24387 cumulative IPC: 1.79096 (Simulation time: 1 hr 56 min 19 sec) 
Heartbeat CPU 0 instructions: 1410000000 cycles: 647863288 heartbeat IPC: 1.65652 cumulative IPC: 1.78936 (Simulation time: 1 hr 56 min 56 sec) 
Heartbeat CPU 0 instructions: 1420000002 cycles: 653719026 heartbeat IPC: 1.70773 cumulative IPC: 1.78843 (Simulation time: 1 hr 57 min 29 sec) 
Heartbeat CPU 0 instructions: 1430000002 cycles: 659174282 heartbeat IPC: 1.83309 cumulative IPC: 1.7889 (Simulation time: 1 hr 58 min 2 sec) 
Heartbeat CPU 0 instructions: 1440000000 cycles: 665451056 heartbeat IPC: 1.59317 cumulative IPC: 1.78656 (Simulation time: 1 hr 58 min 39 sec) 
Heartbeat CPU 0 instructions: 1450000003 cycles: 670723512 heartbeat IPC: 1.89665 cumulative IPC: 1.78766 (Simulation time: 1 hr 59 min 13 sec) 
Heartbeat CPU 0 instructions: 1460000000 cycles: 677177087 heartbeat IPC: 1.54953 cumulative IPC: 1.7848 (Simulation time: 1 hr 59 min 58 sec) 
Heartbeat CPU 0 instructions: 1470000001 cycles: 682333326 heartbeat IPC: 1.9394 cumulative IPC: 1.78627 (Simulation time: 2 hr 0 min 59 sec) 
Heartbeat CPU 0 instructions: 1480000004 cycles: 687467905 heartbeat IPC: 1.94758 cumulative IPC: 1.78778 (Simulation time: 2 hr 2 min 24 sec) 
Heartbeat CPU 0 instructions: 1490000001 cycles: 692568625 heartbeat IPC: 1.96051 cumulative IPC: 1.78937 (Simulation time: 2 hr 3 min 27 sec) 
Heartbeat CPU 0 instructions: 1500000002 cycles: 697631665 heartbeat IPC: 1.9751 cumulative IPC: 1.79106 (Simulation time: 2 hr 4 min 40 sec) 
Heartbeat CPU 0 instructions: 1510000000 cycles: 702802890 heartbeat IPC: 1.93378 cumulative IPC: 1.79236 (Simulation time: 2 hr 5 min 56 sec) 
Heartbeat CPU 0 instructions: 1520000002 cycles: 708042354 heartbeat IPC: 1.90859 cumulative IPC: 1.79344 (Simulation time: 2 hr 6 min 51 sec) 
Heartbeat CPU 0 instructions: 1530000004 cycles: 713345679 heartbeat IPC: 1.88561 cumulative IPC: 1.79429 (Simulation time: 2 hr 8 min 6 sec) 
Heartbeat CPU 0 instructions: 1540000000 cycles: 717438052 heartbeat IPC: 2.44357 cumulative IPC: 1.79888 (Simulation time: 2 hr 8 min 42 sec) 
Heartbeat CPU 0 instructions: 1550000003 cycles: 722802478 heartbeat IPC: 1.86413 cumulative IPC: 1.79948 (Simulation time: 2 hr 9 min 22 sec) 
Heartbeat CPU 0 instructions: 1560000003 cycles: 729203138 heartbeat IPC: 1.56234 cumulative IPC: 1.79691 (Simulation time: 2 hr 10 min 20 sec) 
Heartbeat CPU 0 instructions: 1570000004 cycles: 735773961 heartbeat IPC: 1.52188 cumulative IPC: 1.79388 (Simulation time: 2 hr 11 min 16 sec) 
Heartbeat CPU 0 instructions: 1580000001 cycles: 744322139 heartbeat IPC: 1.16984 cumulative IPC: 1.78506 (Simulation time: 2 hr 12 min 18 sec) 
Heartbeat CPU 0 instructions: 1590000004 cycles: 749448965 heartbeat IPC: 1.95053 cumulative IPC: 1.78645 (Simulation time: 2 hr 12 min 49 sec) 
Heartbeat CPU 0 instructions: 1600000000 cycles: 756586879 heartbeat IPC: 1.40097 cumulative IPC: 1.782 (Simulation time: 2 hr 13 min 28 sec) 
Heartbeat CPU 0 instructions: 1610000002 cycles: 760742102 heartbeat IPC: 2.40661 cumulative IPC: 1.78617 (Simulation time: 2 hr 13 min 49 sec) 
Heartbeat CPU 0 instructions: 1620000001 cycles: 766794176 heartbeat IPC: 1.65233 cumulative IPC: 1.78488 (Simulation time: 2 hr 14 min 28 sec) 
Heartbeat CPU 0 instructions: 1630000000 cycles: 772519354 heartbeat IPC: 1.74667 cumulative IPC: 1.78454 (Simulation time: 2 hr 15 min 1 sec) 
Heartbeat CPU 0 instructions: 1640000000 cycles: 778626265 heartbeat IPC: 1.63749 cumulative IPC: 1.78313 (Simulation time: 2 hr 15 min 42 sec) 
Heartbeat CPU 0 instructions: 1650000000 cycles: 784371366 heartbeat IPC: 1.74061 cumulative IPC: 1.78275 (Simulation time: 2 hr 16 min 39 sec) 
Heartbeat CPU 0 instructions: 1660000002 cycles: 789470491 heartbeat IPC: 1.96112 cumulative IPC: 1.78415 (Simulation time: 2 hr 17 min 25 sec) 
Heartbeat CPU 0 instructions: 1670000003 cycles: 794579247 heartbeat IPC: 1.95742 cumulative IPC: 1.7855 (Simulation time: 2 hr 18 min 13 sec) 
Heartbeat CPU 0 instructions: 1680000000 cycles: 799650818 heartbeat IPC: 1.97178 cumulative IPC: 1.78693 (Simulation time: 2 hr 19 min 0 sec) 
Heartbeat CPU 0 instructions: 1690000000 cycles: 804741539 heartbeat IPC: 1.96436 cumulative IPC: 1.78829 (Simulation time: 2 hr 19 min 48 sec) 
Heartbeat CPU 0 instructions: 1700000004 cycles: 809846155 heartbeat IPC: 1.95901 cumulative IPC: 1.78959 (Simulation time: 2 hr 20 min 35 sec) 
Heartbeat CPU 0 instructions: 1710000001 cycles: 815150392 heartbeat IPC: 1.88528 cumulative IPC: 1.79034 (Simulation time: 2 hr 21 min 21 sec) 
Heartbeat CPU 0 instructions: 1720000000 cycles: 819562391 heartbeat IPC: 2.26655 cumulative IPC: 1.79343 (Simulation time: 2 hr 22 min 11 sec) 
Heartbeat CPU 0 instructions: 1730000002 cycles: 824858639 heartbeat IPC: 1.88813 cumulative IPC: 1.79416 (Simulation time: 2 hr 23 min 25 sec) 
Heartbeat CPU 0 instructions: 1740000001 cycles: 829814662 heartbeat IPC: 2.01775 cumulative IPC: 1.79577 (Simulation time: 2 hr 24 min 21 sec) 
Heartbeat CPU 0 instructions: 1750000001 cycles: 837280455 heartbeat IPC: 1.33944 cumulative IPC: 1.79088 (Simulation time: 2 hr 25 min 13 sec) 
Heartbeat CPU 0 instructions: 1760000000 cycles: 844367668 heartbeat IPC: 1.41099 cumulative IPC: 1.78707 (Simulation time: 2 hr 26 min 8 sec) 
Heartbeat CPU 0 instructions: 1770000002 cycles: 850998358 heartbeat IPC: 1.50814 cumulative IPC: 1.78447 (Simulation time: 2 hr 26 min 54 sec) 
Heartbeat CPU 0 instructions: 1780000000 cycles: 858526644 heartbeat IPC: 1.32832 cumulative IPC: 1.77969 (Simulation time: 2 hr 27 min 39 sec) 
Heartbeat CPU 0 instructions: 1790000000 cycles: 862194364 heartbeat IPC: 2.72649 cumulative IPC: 1.7845 (Simulation time: 2 hr 28 min 7 sec) 
Heartbeat CPU 0 instructions: 1800000002 cycles: 868161662 heartbeat IPC: 1.6758 cumulative IPC: 1.78361 (Simulation time: 2 hr 28 min 48 sec) 
Heartbeat CPU 0 instructions: 1810000004 cycles: 874213276 heartbeat IPC: 1.65245 cumulative IPC: 1.78253 (Simulation time: 2 hr 29 min 51 sec) 
Heartbeat CPU 0 instructions: 1820000000 cycles: 880043816 heartbeat IPC: 1.71511 cumulative IPC: 1.782 (Simulation time: 2 hr 31 min 1 sec) 
Heartbeat CPU 0 instructions: 1830000004 cycles: 886198860 heartbeat IPC: 1.62468 cumulative IPC: 1.7807 (Simulation time: 2 hr 32 min 16 sec) 
Heartbeat CPU 0 instructions: 1840000000 cycles: 891413344 heartbeat IPC: 1.91773 cumulative IPC: 1.78165 (Simulation time: 2 hr 33 min 28 sec) 
Heartbeat CPU 0 instructions: 1850000000 cycles: 896576620 heartbeat IPC: 1.93675 cumulative IPC: 1.78271 (Simulation time: 2 hr 34 min 12 sec) 
Heartbeat CPU 0 instructions: 1860000004 cycles: 901759589 heartbeat IPC: 1.9294 cumulative IPC: 1.7837 (Simulation time: 2 hr 35 min 20 sec) 
Heartbeat CPU 0 instructions: 1870000003 cycles: 906996432 heartbeat IPC: 1.90955 cumulative IPC: 1.78456 (Simulation time: 2 hr 36 min 25 sec) 
Heartbeat CPU 0 instructions: 1880000001 cycles: 912206781 heartbeat IPC: 1.91926 cumulative IPC: 1.78547 (Simulation time: 2 hr 37 min 25 sec) 
Heartbeat CPU 0 instructions: 1890000000 cycles: 917534169 heartbeat IPC: 1.87709 cumulative IPC: 1.7861 (Simulation time: 2 hr 38 min 34 sec) 
Heartbeat CPU 0 instructions: 1900000003 cycles: 922328846 heartbeat IPC: 2.08565 cumulative IPC: 1.78793 (Simulation time: 2 hr 39 min 22 sec) 
Heartbeat CPU 0 instructions: 1910000003 cycles: 927342518 heartbeat IPC: 1.99455 cumulative IPC: 1.78925 (Simulation time: 2 hr 40 min 6 sec) 
Heartbeat CPU 0 instructions: 1920000000 cycles: 932264145 heartbeat IPC: 2.03185 cumulative IPC: 1.79075 (Simulation time: 2 hr 40 min 43 sec) 
Heartbeat CPU 0 instructions: 1930000003 cycles: 939165575 heartbeat IPC: 1.44898 cumulative IPC: 1.7878 (Simulation time: 2 hr 41 min 35 sec) 
Heartbeat CPU 0 instructions: 1940000004 cycles: 945756069 heartbeat IPC: 1.51734 cumulative IPC: 1.78559 (Simulation time: 2 hr 42 min 36 sec) 
Heartbeat CPU 0 instructions: 1950000001 cycles: 954199358 heartbeat IPC: 1.18437 cumulative IPC: 1.77936 (Simulation time: 2 hr 43 min 32 sec) 
Heartbeat CPU 0 instructions: 1960000001 cycles: 959627578 heartbeat IPC: 1.84222 cumulative IPC: 1.77978 (Simulation time: 2 hr 44 min 5 sec) 
Heartbeat CPU 0 instructions: 1970000000 cycles: 966141903 heartbeat IPC: 1.53508 cumulative IPC: 1.77785 (Simulation time: 2 hr 44 min 41 sec) 
Heartbeat CPU 0 instructions: 1980000000 cycles: 970877488 heartbeat IPC: 2.11167 cumulative IPC: 1.77975 (Simulation time: 2 hr 45 min 7 sec) 
Heartbeat CPU 0 instructions: 1990000000 cycles: 977613426 heartbeat IPC: 1.48457 cumulative IPC: 1.77738 (Simulation time: 2 hr 45 min 47 sec) 
*** Reached end of trace: traces/628.pop2_s-17B.champsimtrace.xz
Heartbeat CPU 0 instructions: 2000000002 cycles: 982506273 heartbeat IPC: 2.0438 cumulative IPC: 1.77893 (Simulation time: 2 hr 46 min 15 sec) 
Finished CPU 0 instructions: 1500000002 cycles: 843204786 cumulative IPC: 1.77893 (Simulation time: 2 hr 46 min 15 sec) 

ChampSim completed all CPUs

Region of Interest Statistics

CPU 0 cumulative IPC: 1.77893 instructions: 1500000002 cycles: 843204786
cpu0_DTLB TOTAL     ACCESS:  290156242  HIT:  289470968  MISS:     685274
cpu0_DTLB LOAD      ACCESS:  235014583  HIT:  234456303  MISS:     558280
cpu0_DTLB RFO       ACCESS:   55141659  HIT:   55014665  MISS:     126994
cpu0_DTLB PREFETCH  ACCESS:          0  HIT:          0  MISS:          0
cpu0_DTLB WRITEBACK ACCESS:          0  HIT:          0  MISS:          0
cpu0_DTLB TRANSLATION ACCESS:          0  HIT:          0  MISS:          0
cpu0_DTLB PREFETCH  REQUESTED:          0  ISSUED:          0  USEFUL:          0  USELESS:          0
cpu0_DTLB AVERAGE MISS LATENCY: 23.9396 cycles
cpu0_ITLB TOTAL     ACCESS:  146300355  HIT:  146270094  MISS:      30261
cpu0_ITLB LOAD      ACCESS:  146300355  HIT:  146270094  MISS:      30261
cpu0_ITLB RFO       ACCESS:          0  HIT:          0  MISS:          0
cpu0_ITLB PREFETCH  ACCESS:          0  HIT:          0  MISS:          0
cpu0_ITLB WRITEBACK ACCESS:          0  HIT:          0  MISS:          0
cpu0_ITLB TRANSLATION ACCESS:          0  HIT:          0  MISS:          0
cpu0_ITLB PREFETCH  REQUESTED:          0  ISSUED:          0  USEFUL:          0  USELESS:          0
cpu0_ITLB AVERAGE MISS LATENCY: 10.8189 cycles
cpu0_L1I TOTAL     ACCESS:    9944471  HIT:    9241049  MISS:     703422
cpu0_L1I LOAD      ACCESS:    9944471  HIT:    9241049  MISS:     703422
cpu0_L1I RFO       ACCESS:          0  HIT:          0  MISS:          0
cpu0_L1I PREFETCH  ACCESS:          0  HIT:          0  MISS:          0
cpu0_L1I WRITEBACK ACCESS:          0  HIT:          0  MISS:          0
cpu0_L1I TRANSLATION ACCESS:          0  HIT:          0  MISS:          0
cpu0_L1I PREFETCH  REQUESTED:          0  ISSUED:          0  USEFUL:          0  USELESS:          0
cpu0_L1I AVERAGE MISS LATENCY: 45.457 cycles
cpu0_STLB TOTAL     ACCESS:     715535  HIT:     645343  MISS:      70192
cpu0_STLB LOAD      ACCESS:     588541  HIT:     546863  MISS:      41678
cpu0_STLB RFO       ACCESS:     126994  HIT:      98480  MISS:      28514
cpu0_STLB PREFETCH  ACCESS:          0  HIT:          0  MISS:          0
cpu0_STLB WRITEBACK ACCESS:          0  HIT:          0  MISS:          0
cpu0_STLB TRANSLATION ACCESS:          0  HIT:          0  MISS:          0
cpu0_STLB PREFETCH  REQUESTED:          0  ISSUED:          0  USEFUL:          0  USELESS:          0
cpu0_STLB AVERAGE MISS LATENCY: 146.075 cycles
cpu0_L1D TOTAL     ACCESS:  243137959  HIT:  221758043  MISS:   21379916
cpu0_L1D LOAD      ACCESS:  164535393  HIT:  150590468  MISS:   13944925
cpu0_L1D RFO       ACCESS:   78534603  HIT:   71133365  MISS:    7401238
cpu0_L1D PREFETCH  ACCESS:          0  HIT:          0  MISS:          0
cpu0_L1D WRITEBACK ACCESS:          0  HIT:          0  MISS:          0
cpu0_L1D TRANSLATION ACCESS:      67963  HIT:      34210  MISS:      33753
cpu0_L1D PREFETCH  REQUESTED:          0  ISSUED:          0  USEFUL:          0  USELESS:          0
cpu0_L1D AVERAGE MISS LATENCY: 122.242 cycles
cpu0_L2C TOTAL     ACCESS:   31658803  HIT:   22080273  MISS:    9578530
cpu0_L2C LOAD      ACCESS:   14647026  HIT:    8259749  MISS:    6387277
cpu0_L2C RFO       ACCESS:    7400572  HIT:    4230899  MISS:    3169673
cpu0_L2C PREFETCH  ACCESS:          0  HIT:          0  MISS:          0
cpu0_L2C WRITEBACK ACCESS:    9577452  HIT:    9569379  MISS:       8073
cpu0_L2C TRANSLATION ACCESS:      33753  HIT:      20246  MISS:      13507
cpu0_L2C PREFETCH  REQUESTED:          0  ISSUED:          0  USEFUL:          0  USELESS:          0
cpu0_L2C AVERAGE MISS LATENCY: 250.662 cycles
LLC TOTAL     ACCESS:   14070664  HIT:    8680727  MISS:    5389937
LLC LOAD      ACCESS:    6387269  HIT:    3069943  MISS:    3317326
LLC RFO       ACCESS:    3169664  HIT:    1139895  MISS:    2029769
LLC PREFETCH  ACCESS:          0  HIT:          0  MISS:          0
LLC WRITEBACK ACCESS:    4500224  HIT:    4458726  MISS:      41498
LLC TRANSLATION ACCESS:      13507  HIT:      12163  MISS:       1344
LLC PREFETCH  REQUESTED:          0  ISSUED:          0  USEFUL:          0  USELESS:          0
LLC AVERAGE MISS LATENCY: 408.164 cycles
~~~~~~~~~~Reuse Distance Profiler output~~~~~~~~~~
0	62758848	31327648
1	41628992	19830208
2	34071968	21058240
3	27558512	21761680
4	19260848	16127216
5	14491072	12452288
6	12137792	10288816
7	8141600	6938752
8	7247440	6218256
9	6765248	5870912
10	6972176	5988992
11	5653440	5107696
12	5167536	4624336
13	4161392	3745408
14	3993200	3598464
15	3623392	3296208
16	2283200	2012544
17	1817232	1552688
18	1528048	1273168
19	1451120	1211008
20	1306720	1132944
21	1350208	1173776
22	1062560	900352
23	830304	691200
24	744576	631568
25	598544	495744
26	549872	445568
27	895536	767664
28	610944	507168
29	689920	595568
30	481648	398208
31	409760	328080
32	353168	257984
33	361552	259168
34	474800	388704
35	359056	251984
36	343760	252448
37	266736	179616
38	4852224	2630848
39	318432	192112
40	312432	169728
41	474352	245856
42	940528	478944
43	480288	290464
44	265824	157056
45	170016	100336
46	160848	92272
47	155296	96784
48	150752	100160
49	136864	90912
50	128176	80464
51	192912	139056
52	138960	96592
53	135584	95520
54	143072	99616
55	125696	75456
56	117168	63280
57	104736	66272
58	90768	60560
59	91264	59952
60	95024	68624
61	96144	68960
62	126288	92928
63	104128	65744
64	202320	131664
66	163664	86384
68	132288	60752
70	109344	70848
72	96912	76320
74	82224	58672
76	89504	47040
78	58768	33328
80	53568	31696
82	48528	30688
84	48272	28768
86	43424	28176
88	43904	30240
90	48464	30928
92	49664	29952
94	35808	26960
96	38272	29920
98	31824	26448
100	31136	27344
102	28944	25440
104	23472	19744
106	16000	13008
108	18000	14960
110	15520	11760
112	13856	10400
114	14096	11808
116	14976	12688
118	14080	11312
120	15472	14416
122	14896	12944
124	19584	18256
126	20256	18768
128	35520	32288
132	96912	94080
136	64384	61616
140	54416	51168
144	54384	50592
148	66400	59536
152	51536	48416
156	93184	85856
160	56672	49632
164	125840	121424
168	128144	123488
172	53456	50336
176	62320	58096
180	44400	40592
184	49632	46960
188	73184	68384
192	49856	43728
196	57408	51040
200	76416	71904
204	69120	64256
208	132848	127792
212	60416	54704
216	48576	41504
220	45024	38352
224	46432	39904
228	71632	66768
232	119488	113936
236	76944	72640
240	69456	63936
244	74560	67520
248	73200	67728
252	71296	65312
256	156304	142688
264	192096	179872
272	151552	141792
280	155888	142304
288	170448	159808
296	223680	208768
304	247760	234432
312	258736	243856
320	282032	270592
328	326496	312864
336	305664	291280
344	265728	250624
352	257584	241824
360	216608	205440
368	196864	181024
376	382944	367760
384	252512	219488
392	231216	214256
400	210800	193232
408	241264	224336
416	219488	200640
424	183376	163856
432	171168	148768
440	185520	165520
448	187616	164288
456	168928	147376
464	179296	156496
472	174544	147744
480	153920	132032
488	159632	131616
496	157952	126752
504	147600	117584
512	351664	296448
528	326128	273040
544	336752	224640
560	343920	278720
576	339312	288160
592	265088	219424
608	270480	228192
624	281936	214528
640	300512	236512
656	306784	236256
672	282992	221328
688	292736	230304
704	288784	242848
720	321200	272080
736	326256	282416
752	290496	250688
768	289936	248864
784	293808	244144
800	326464	278208
816	262880	221360
832	242096	204416
848	209216	171616
864	218896	180608
880	209552	177136
896	173696	137408
912	157904	126400
928	147600	117152
944	185536	133536
960	155440	126368
976	158336	133008
992	167056	144864
1008	155328	130864
1024	306592	250784
1056	369712	303888
1088	348928	307312
1120	312192	274880
1152	302016	267456
1184	307072	274896
1216	289680	261232
1248	314112	286800
1280	357696	328560
1312	311504	279984
1344	299616	269136
1376	380000	353808
1408	303728	275760
1440	281680	250912
1472	253216	224480
1504	278400	247088
1536	321904	286528
1568	275856	237056
1600	280368	243424
1632	319248	280816
1664	334176	292976
1696	292080	240928
1728	271808	210800
1760	267264	211296
1792	249632	198048
1824	373136	307520
1856	308560	266864
1888	296352	251600
1920	418752	383600
1952	263296	225360
1984	181120	145776
2016	235648	201296
2048	490304	423952
2112	377856	310416
2176	358320	276608
2240	338224	268720
2304	346016	275072
2368	396880	322688
2432	471920	404832
2496	398256	336000
2560	285408	227696
2624	219728	168400
2688	252624	174496
2752	411536	354464
2816	295872	230480
2880	260272	197296
2944	234224	175952
3008	243744	180224
3072	286576	223904
3136	385904	314080
3200	249952	186672
3264	178208	118672
3328	157024	94656
3392	152608	97552
3456	150272	96400
3520	135168	82512
3584	123264	66528
3648	164832	105616
3712	138512	82784
3776	158864	102864
3840	191408	135984
3904	149856	94464
3968	138768	76176
4032	125136	57936
4096	291648	146768
4224	292816	174224
4352	311824	211328
4480	411120	315072
4608	453936	353920
4736	359888	266592
4864	338704	236272
4992	394128	217456
5120	191632	82288
5248	202688	99440
5376	314400	206416
5504	317792	227408
5632	272768	216624
5760	254704	200560
5888	149664	91008
6016	153408	85248
6144	136672	72240
6272	184736	131408
6400	129008	78384
6528	198960	115552
6656	164256	105840
6784	132736	69040
6912	139840	76240
7040	108928	67024
7168	77152	48560
7296	99632	54816
7424	100752	76896
7552	130160	90304
7680	150304	117136
7808	219280	187152
7936	270720	235520
8064	299552	253936
8192	344848	257216
8448	219792	133808
8704	488624	409248
8960	569552	488512
9216	234736	170448
9472	181616	106656
9728	159488	83936
9984	180160	121952
10240	202064	160416
10496	262928	221984
10752	271072	237760
11008	187216	153008
11264	318048	279200
11520	134896	108352
11776	125104	97552
12032	112336	76000
12288	130880	93504
12544	142736	109824
12800	115280	86800
13056	193984	164960
13312	203696	175568
13568	102976	71616
13824	79536	46656
14080	102896	69184
14336	155248	112368
14592	121840	91360
14848	64976	35312
15104	69472	38416
15360	73536	32528
15616	97616	39024
15872	88208	45376
16128	80944	44096
16384	162272	95232
16896	194384	97680
17408	241168	166848
17920	238704	166512
18432	138080	52544
18944	129744	57136
19456	89856	49664
19968	106624	75392
20480	141376	92224
20992	119792	70288
21504	70272	39312
22016	106224	37408
22528	95072	42784
23040	81824	41536
23552	98480	48736
24064	101504	63328
24576	104448	66528
25088	117248	50720
25600	126112	52432
26112	85712	64016
26624	68064	53504
27136	76800	60672
27648	75104	55872
28160	72832	52256
28672	55776	41600
29184	74688	42048
29696	73024	28400
30208	71136	32784
30720	97744	48784
31232	67296	29808
31744	70400	33664
32256	59968	39424
32768	195328	130192
33792	144224	73968
34816	145792	103152
35840	175856	132608
36864	201824	75776
37888	164784	104000
38912	162208	119536
39936	227024	152464
40960	150528	118496
41984	140992	89872
43008	156464	109920
44032	132000	89296
45056	107440	73616
46080	68528	48512
47104	84992	74112
48128	58112	23520
49152	81088	40736
50176	74624	39536
51200	44128	23904
52224	51600	39600
53248	40272	15568
54272	46192	25664
55296	30656	19472
56320	33952	18400
57344	66368	10528
58368	34448	14480
59392	19680	9056
60416	32352	8160
61440	39568	9040
62464	48448	16384
63488	38896	17936
64512	43024	7424
65536	131056	54832
67584	110288	95952
69632	54832	28304
71680	128080	38176
73728	144768	61568
75776	133696	126816
77824	191792	175600
79872	66224	58368
81920	136688	103616
83968	122016	65664
86016	31984	13760
88064	43280	18736
90112	75312	34800
92160	118336	50800
94208	66448	36736
96256	99120	47792
98304	56080	40512
100352	39792	25072
102400	36496	24064
104448	26544	13488
106496	16336	6528
108544	45824	13664
110592	43696	19952
112640	21216	14224
114688	38784	33040
116736	29088	25760
118784	16208	10576
120832	31104	7072
122880	12512	7712
124928	16560	12320
126976	54800	46768
129024	22976	14864
131072	58640	43744
135168	74336	41776
139264	109696	94080
143360	94144	41152
147456	39120	28592
151552	75440	69712
155648	33024	28384
159744	20752	13280
163840	27536	21840
167936	66480	38432
172032	83152	73904
176128	106272	89296
180224	116224	52448
184320	49840	24016
188416	77648	15184
192512	36080	28352
196608	65184	56672
200704	46704	19856
204800	62864	35616
208896	105264	47840
212992	60384	31856
217088	78064	69632
221184	94400	74688
225280	129264	65184
229376	123472	92448
233472	216432	192656
237568	67056	36464
241664	155360	59296
245760	328928	214288
249856	685840	551120
253952	25584	18672
258048	21760	14528
262144	59056	45408
270336	56048	38592
278528	44816	30192
286720	49104	30768
294912	44688	30192
303104	83392	65392
311296	71344	42928
319488	177536	121104
327680	189760	136944
335872	111024	87104
344064	19168	16880
352256	23168	20176
360448	20880	17600
368640	14976	12624
376832	12192	10240
385024	14384	12624
393216	15168	13632
401408	13504	12144
409600	7536	6224
417792	10032	8720
425984	6576	5488
434176	6048	5056
442368	9584	8608
450560	7632	6608
458752	7888	6848
466944	12192	11024
475136	8272	6880
483328	8512	7824
491520	9472	8768
499712	8720	8016
507904	10352	9664
516096	9920	9216
524288	19760	16896
540672	17504	15968
557056	23856	21152
573440	21136	18608
589824	17888	16064
606208	19456	16144
622592	19088	16976
638976	17104	16640
655360	13472	13120
671744	15376	14928
688128	15904	14400
704512	12416	11568
720896	13744	12320
737280	13648	12800
753664	11440	10560
770048	10176	9088
786432	10304	9856
802816	11696	9904
819200	9472	8032
835584	11104	9648
851968	13120	9568
868352	10928	7088
884736	11920	8864
901120	11952	9264
917504	15424	12240
933888	17872	14576
950272	16320	11600
966656	12944	8528
983040	10000	5952
999424	11040	6528
1015808	12304	7664
1032192	11472	6416
1048576	27200	15872
1081344	29680	17456
1114112	31456	17168
1146880	33920	14272
1179648	40016	17632
1212416	26896	16560
1245184	24416	14640
1277952	25616	14576
1310720	24064	13040
1343488	25936	14032
1376256	23872	11920
1409024	23136	11600
1441792	24672	13152
1474560	23776	12400
1507328	24752	14352
1540096	19120	8672
1572864	21072	9424
1605632	19552	8304
1638400	22416	10384
1671168	22656	13232
1703936	33136	27856
1736704	30608	28128
1769472	17984	15328
1802240	13120	11488
1835008	15264	13536
1867776	15168	13584
1900544	17072	15392
1933312	19616	17424
1966080	19600	15744
1998848	18720	16368
2031616	19168	16144
2064384	23296	18512
2097152	50512	37040
2162688	49104	38240
2228224	43808	33824
2293760	38800	28864
2359296	38832	29264
2424832	39696	29920
2490368	25808	23168
2555904	24448	22000
2621440	22640	18832
2686976	20000	17840
2752512	24256	22016
2818048	30736	26912
2883584	21856	19712
2949120	15280	13920
3014656	16912	15872
3080192	20000	19504
3145728	20240	19152
3211264	20192	17920
3276800	16768	15776
3342336	14000	12560
3407872	13392	12496
3473408	17280	15808
3538944	17792	16240
3604480	22624	21184
3670016	18208	16912
3735552	20592	18560
3801088	24576	22912
3866624	32736	31600
3932160	32144	31040
3997696	32352	31696
4063232	30208	29856
4128768	29296	27920
4194304	51152	49680
4325376	17184	17088
4456448	13040	12784
4587520	7360	6752
4718592	25264	20992
4849664	21776	16976
4980736	17472	16256
5111808	14880	14336
5242880	14512	14160
5373952	12368	11744
5505024	14928	14592
5636096	15808	15520
5767168	26080	25776
5898240	29872	29744
6029312	17152	16720
6160384	23440	23168
6291456	18288	17216
6422528	24752	23824
6553600	14032	13232
6684672	13824	13072
6815744	10960	10720
6946816	8720	8480
7077888	9104	9072
7208960	7536	7152
7340032	10608	10352
7471104	8144	8080
7602176	14032	12688
7733248	7328	7280
7864320	13616	13040
7995392	11504	11120
8126464	10352	10304
8257536	10576	10448
8388608	20080	19936
8650752	20528	20320
8912896	20640	20512
9175040	18320	18320
9437184	22672	22320
9699328	22976	22544
9961472	27568	26976
10223616	24752	24384
10485760	25232	24816
10747904	25328	24992
11010048	27712	27392
11272192	25200	25200
11534336	23072	23072
11796480	23552	23424
12058624	25968	25792
12320768	25744	25632
12582912	26272	26176
12845056	25376	25328
13107200	26032	26000
13369344	28704	28688
13631488	26208	26208
13893632	27664	27616
14155776	28960	28928
14417920	25280	25232
14680064	23040	22928
14942208	24128	23024
15204352	24688	23056
15466496	21808	21456
15728640	23872	23824
15990784	24112	24080
16252928	21920	21920
16515072	21584	21568
16777216	39136	39072
17301504	32432	32432
17825792	29248	29232
18350080	29552	29520
18874368	33136	33072
19398656	36384	36256
19922944	23376	23376
20447232	26064	26064
20971520	26512	26176
21495808	28016	28016
22020096	29056	28624
22544384	16800	16416
23068672	16752	16336
23592960	15936	15936
24117248	14288	12288
24641536	23120	11024
25165824	54576	9216
25690112	15440	9008
26214400	8928	8896
26738688	7552	6928
27262976	7184	6752
27787264	7248	5504
28311552	23712	5152
28835840	39840	6272
29360128	25104	7712
29884416	63024	6256
30408704	6224	4224
30932992	3072	3056
31457280	2208	2208
31981568	4784	1712
32505856	2176	1936
33030144	6800	1600
33554432	7856	2928
34603008	10240	1712
35651584	7776	1072
36700160	1920	784
37748736	688	576
38797312	384	384
39845888	4784	592
40894464	9168	624
41943040	13872	496
42991616	11072	432
44040192	96	96
45088768	160	160
46137344	96	96
47185920	112	112
48234496	32	32
49283072	64	64
50331648	80	80
51380224	128	128
52428800	16	16
53477376	32	32
54525952	48	48
55574528	16	16
56623104	112	112
57671680	144	144
58720256	592	592
59768832	96	96
60817408	32	32
61865984	16	16
62914560	16	16
63963136	32	32
65011712	48	48
66060288	0	0
67108864	32	32
69206016	16	16
71303168	16	16
73400320	32	16
75497472	48	48
77594624	0	0
79691776	0	0
81788928	0	0
83886080	64	64
85983232	0	0
88080384	16	16
90177536	0	0
92274688	0	0
94371840	16	16
96468992	0	0
98566144	0	0
100663296	48	48
102760448	16	16
104857600	0	0
106954752	0	0
109051904	0	0
111149056	16	16
113246208	0	0
115343360	0	0
117440512	16	16
119537664	0	0
121634816	16	16
123731968	16	16
125829120	64	64
127926272	48	48
130023424	32	32
132120576	0	0
134217728	64	64
138412032	0	0
142606336	0	0
146800640	0	0
150994944	48	48
155189248	0	0
159383552	32	32
163577856	16	16
167772160	0	0
171966464	16	16
176160768	0	0
180355072	16	16
184549376	0	0
188743680	16	16
192937984	32	32
197132288	32	32
201326592	16	16
205520896	32	32
209715200	16	16
213909504	0	0
218103808	16	16
222298112	48	48
226492416	16	16
230686720	16	16
234881024	0	0
239075328	0	0
243269632	0	0
247463936	16	16
251658240	16	16
255852544	32	32
260046848	0	0
264241152	0	0
268435456	0	0
276824064	16	16
285212672	0	0
293601280	16	16
301989888	16	16
310378496	48	48
318767104	0	0
327155712	0	0
335544320	0	0
343932928	32	32
352321536	0	0
360710144	0	0
369098752	0	0
377487360	0	0
385875968	0	0
394264576	0	0
402653184	0	0
411041792	0	0
419430400	0	0
427819008	0	0
436207616	0	0
444596224	0	0
452984832	0	0
461373440	0	0
469762048	0	0
478150656	0	0
486539264	0	0
494927872	0	0
503316480	0	0
511705088	0	0
520093696	0	0
528482304	0	0
536870912	0	0
553648128	0	0
570425344	0	0
587202560	0	0
603979776	0	0
620756992	0	0
637534208	0	0
654311424	0	0
671088640	0	0
687865856	0	0
704643072	0	0
721420288	0	0
738197504	0	0
754974720	0	0
771751936	0	0
788529152	0	0
805306368	0	0
822083584	0	0
838860800	0	0
855638016	0	0
872415232	0	0
889192448	0	0
905969664	0	0
922746880	0	0
939524096	0	0
956301312	0	0
973078528	0	0
989855744	0	0
1006632960	0	0
1023410176	0	0
1040187392	0	0
1056964608	0	0
1073741824	0	0
1107296256	0	0
1140850688	0	0
1174405120	0	0
1207959552	0	0
1241513984	0	0
1275068416	0	0
1308622848	0	0
1342177280	0	0
1375731712	0	0
1409286144	0	0
1442840576	0	0
1476395008	0	0
1509949440	0	0
1543503872	0	0
1577058304	0	0
1610612736	0	0
1644167168	0	0
1677721600	0	0
1711276032	0	0
1744830464	0	0
1778384896	0	0
1811939328	0	0
1845493760	0	0
1879048192	0	0
1912602624	0	0
1946157056	0	0
1979711488	0	0
2013265920	0	0
2046820352	0	0
2080374784	0	0
2113929216	0	0
2147483648	0	0
2214592512	0	0
2281701376	0	0
2348810240	0	0
2415919104	0	0
2483027968	0	0
2550136832	0	0
2617245696	0	0
2684354560	0	0
2751463424	0	0
2818572288	0	0
2885681152	0	0
2952790016	0	0
3019898880	0	0
3087007744	0	0
3154116608	0	0
3221225472	0	0
3288334336	0	0
3355443200	0	0
3422552064	0	0
3489660928	0	0
3556769792	0	0
3623878656	0	0
3690987520	0	0
3758096384	0	0
3825205248	0	0
3892314112	0	0
3959422976	0	0
4026531840	0	0
4093640704	0	0
4160749568	0	0
4227858432	0	0
~~~~~~~~~~Reuse Distance Profiler output end~~~~~~~~~~

DRAM Statistics
 CHANNEL 0
 RQ ROW_BUFFER_HIT:    1471244  ROW_BUFFER_MISS:    3875823
 DBUS AVG_CONGESTED_CYCLE:    3.93713
 WQ ROW_BUFFER_HIT:     417813  ROW_BUFFER_MISS:    2327881  FULL:        483


CPU 0 Branch Prediction Accuracy: 95.9444% MPKI: 6.33368 Average ROB Occupancy at Mispredict: 118.954
Branch type MPKI
BRANCH_DIRECT_JUMP: 8.66667e-06
BRANCH_INDIRECT: 0.000650667
BRANCH_CONDITIONAL: 6.33301
BRANCH_DIRECT_CALL: 1.13333e-05
BRANCH_INDIRECT_CALL: 0
BRANCH_RETURN: 6.66667e-07

