
*** ChampSim Multicore Out-of-Order Simulator ***

Warmup Instructions: 500000000
Simulation Instructions: 1500000000
Number of CPUs: 1
Off-chip DRAM Size: 4 GiB Channels: 1 Width: 64-bit Data Rate: 3200 MT/s

VirtualMemory physical capacity: 8588881920 num_ppages: 2096895
VirtualMemory page size: 4096 log2_page_size: 12

CPU 0 runs traces/631.deepsjeng_s-928B.champsimtrace.xz
CPU 0 Bimodal branch predictor
Basic BTB sets: 1024 ways: 8 indirect buffer size: 4096 RAS size: 64
Initializing LRU.
Initializing LRU.
Initializing LRU.
Initializing LRU.
Initializing rdLRU.
Initializing LRU.
Initializing LRU.
Heartbeat CPU 0 instructions: 10000002 cycles: 2500178 heartbeat IPC: 3.99972 cumulative IPC: 3.99972 (Simulation time: 0 hr 0 min 56 sec) 
Heartbeat CPU 0 instructions: 20000002 cycles: 5000178 heartbeat IPC: 4 cumulative IPC: 3.99986 (Simulation time: 0 hr 1 min 54 sec) 
Heartbeat CPU 0 instructions: 30000002 cycles: 7500178 heartbeat IPC: 4 cumulative IPC: 3.99991 (Simulation time: 0 hr 2 min 50 sec) 
Heartbeat CPU 0 instructions: 40000002 cycles: 10000178 heartbeat IPC: 4 cumulative IPC: 3.99993 (Simulation time: 0 hr 3 min 41 sec) 
Heartbeat CPU 0 instructions: 50000002 cycles: 12500178 heartbeat IPC: 4 cumulative IPC: 3.99994 (Simulation time: 0 hr 4 min 34 sec) 
Heartbeat CPU 0 instructions: 60000002 cycles: 15000178 heartbeat IPC: 4 cumulative IPC: 3.99995 (Simulation time: 0 hr 5 min 31 sec) 
Heartbeat CPU 0 instructions: 70000002 cycles: 17500178 heartbeat IPC: 4 cumulative IPC: 3.99996 (Simulation time: 0 hr 6 min 25 sec) 
Heartbeat CPU 0 instructions: 80000002 cycles: 20000178 heartbeat IPC: 4 cumulative IPC: 3.99996 (Simulation time: 0 hr 7 min 17 sec) 
Heartbeat CPU 0 instructions: 90000002 cycles: 22500178 heartbeat IPC: 4 cumulative IPC: 3.99997 (Simulation time: 0 hr 8 min 10 sec) 
Heartbeat CPU 0 instructions: 100000002 cycles: 25000185 heartbeat IPC: 3.99999 cumulative IPC: 3.99997 (Simulation time: 0 hr 9 min 2 sec) 
Heartbeat CPU 0 instructions: 110000002 cycles: 27500185 heartbeat IPC: 4 cumulative IPC: 3.99997 (Simulation time: 0 hr 9 min 57 sec) 
Heartbeat CPU 0 instructions: 120000002 cycles: 30000185 heartbeat IPC: 4 cumulative IPC: 3.99998 (Simulation time: 0 hr 10 min 50 sec) 
Heartbeat CPU 0 instructions: 130000002 cycles: 32500185 heartbeat IPC: 4 cumulative IPC: 3.99998 (Simulation time: 0 hr 11 min 37 sec) 
Heartbeat CPU 0 instructions: 140000002 cycles: 35000185 heartbeat IPC: 4 cumulative IPC: 3.99998 (Simulation time: 0 hr 12 min 31 sec) 
Heartbeat CPU 0 instructions: 150000002 cycles: 37500185 heartbeat IPC: 4 cumulative IPC: 3.99998 (Simulation time: 0 hr 13 min 24 sec) 
Heartbeat CPU 0 instructions: 160000002 cycles: 40000185 heartbeat IPC: 4 cumulative IPC: 3.99998 (Simulation time: 0 hr 14 min 13 sec) 
Heartbeat CPU 0 instructions: 170000002 cycles: 42500185 heartbeat IPC: 4 cumulative IPC: 3.99998 (Simulation time: 0 hr 15 min 4 sec) 
Heartbeat CPU 0 instructions: 180000000 cycles: 45000186 heartbeat IPC: 4 cumulative IPC: 3.99998 (Simulation time: 0 hr 15 min 57 sec) 
Heartbeat CPU 0 instructions: 190000003 cycles: 47500202 heartbeat IPC: 3.99998 cumulative IPC: 3.99998 (Simulation time: 0 hr 16 min 44 sec) 
Heartbeat CPU 0 instructions: 200000003 cycles: 50000202 heartbeat IPC: 4 cumulative IPC: 3.99998 (Simulation time: 0 hr 17 min 33 sec) 
Heartbeat CPU 0 instructions: 210000003 cycles: 52500202 heartbeat IPC: 4 cumulative IPC: 3.99998 (Simulation time: 0 hr 18 min 25 sec) 
Heartbeat CPU 0 instructions: 220000000 cycles: 55000204 heartbeat IPC: 4 cumulative IPC: 3.99999 (Simulation time: 0 hr 19 min 18 sec) 
Heartbeat CPU 0 instructions: 230000001 cycles: 57500205 heartbeat IPC: 4 cumulative IPC: 3.99999 (Simulation time: 0 hr 20 min 9 sec) 
Heartbeat CPU 0 instructions: 240000001 cycles: 60000205 heartbeat IPC: 4 cumulative IPC: 3.99999 (Simulation time: 0 hr 21 min 1 sec) 
Heartbeat CPU 0 instructions: 250000001 cycles: 62500205 heartbeat IPC: 4 cumulative IPC: 3.99999 (Simulation time: 0 hr 21 min 45 sec) 
Heartbeat CPU 0 instructions: 260000001 cycles: 65000205 heartbeat IPC: 4 cumulative IPC: 3.99999 (Simulation time: 0 hr 22 min 34 sec) 
Heartbeat CPU 0 instructions: 270000001 cycles: 67500205 heartbeat IPC: 4 cumulative IPC: 3.99999 (Simulation time: 0 hr 23 min 22 sec) 
Heartbeat CPU 0 instructions: 280000001 cycles: 70000205 heartbeat IPC: 4 cumulative IPC: 3.99999 (Simulation time: 0 hr 24 min 11 sec) 
Heartbeat CPU 0 instructions: 290000001 cycles: 72500205 heartbeat IPC: 4 cumulative IPC: 3.99999 (Simulation time: 0 hr 24 min 56 sec) 
Heartbeat CPU 0 instructions: 300000001 cycles: 75000205 heartbeat IPC: 4 cumulative IPC: 3.99999 (Simulation time: 0 hr 25 min 50 sec) 
Heartbeat CPU 0 instructions: 310000001 cycles: 77500205 heartbeat IPC: 4 cumulative IPC: 3.99999 (Simulation time: 0 hr 26 min 48 sec) 
Heartbeat CPU 0 instructions: 320000001 cycles: 80000205 heartbeat IPC: 4 cumulative IPC: 3.99999 (Simulation time: 0 hr 27 min 45 sec) 
Heartbeat CPU 0 instructions: 330000001 cycles: 82500205 heartbeat IPC: 4 cumulative IPC: 3.99999 (Simulation time: 0 hr 28 min 43 sec) 
Heartbeat CPU 0 instructions: 340000002 cycles: 85000217 heartbeat IPC: 3.99998 cumulative IPC: 3.99999 (Simulation time: 0 hr 29 min 41 sec) 
Heartbeat CPU 0 instructions: 350000002 cycles: 87500217 heartbeat IPC: 4 cumulative IPC: 3.99999 (Simulation time: 0 hr 30 min 39 sec) 
Heartbeat CPU 0 instructions: 360000002 cycles: 90000217 heartbeat IPC: 4 cumulative IPC: 3.99999 (Simulation time: 0 hr 31 min 27 sec) 
Heartbeat CPU 0 instructions: 370000002 cycles: 92500217 heartbeat IPC: 4 cumulative IPC: 3.99999 (Simulation time: 0 hr 32 min 20 sec) 
Heartbeat CPU 0 instructions: 380000003 cycles: 95000219 heartbeat IPC: 4 cumulative IPC: 3.99999 (Simulation time: 0 hr 33 min 20 sec) 
Heartbeat CPU 0 instructions: 390000003 cycles: 97500219 heartbeat IPC: 4 cumulative IPC: 3.99999 (Simulation time: 0 hr 34 min 16 sec) 
Heartbeat CPU 0 instructions: 400000003 cycles: 100000219 heartbeat IPC: 4 cumulative IPC: 3.99999 (Simulation time: 0 hr 35 min 9 sec) 
Heartbeat CPU 0 instructions: 410000003 cycles: 102500219 heartbeat IPC: 4 cumulative IPC: 3.99999 (Simulation time: 0 hr 36 min 3 sec) 
Heartbeat CPU 0 instructions: 420000003 cycles: 105000219 heartbeat IPC: 4 cumulative IPC: 3.99999 (Simulation time: 0 hr 37 min 0 sec) 
Heartbeat CPU 0 instructions: 430000003 cycles: 107500219 heartbeat IPC: 4 cumulative IPC: 3.99999 (Simulation time: 0 hr 37 min 52 sec) 
Heartbeat CPU 0 instructions: 440000003 cycles: 110000219 heartbeat IPC: 4 cumulative IPC: 3.99999 (Simulation time: 0 hr 38 min 44 sec) 
Heartbeat CPU 0 instructions: 450000003 cycles: 112500219 heartbeat IPC: 4 cumulative IPC: 3.99999 (Simulation time: 0 hr 39 min 24 sec) 
Heartbeat CPU 0 instructions: 460000001 cycles: 115000221 heartbeat IPC: 4 cumulative IPC: 3.99999 (Simulation time: 0 hr 40 min 20 sec) 
Heartbeat CPU 0 instructions: 470000001 cycles: 117500221 heartbeat IPC: 4 cumulative IPC: 3.99999 (Simulation time: 0 hr 41 min 8 sec) 
Heartbeat CPU 0 instructions: 480000000 cycles: 120000221 heartbeat IPC: 4 cumulative IPC: 3.99999 (Simulation time: 0 hr 42 min 3 sec) 
Heartbeat CPU 0 instructions: 490000001 cycles: 122500264 heartbeat IPC: 3.99993 cumulative IPC: 3.99999 (Simulation time: 0 hr 42 min 58 sec) 
Heartbeat CPU 0 instructions: 500000000 cycles: 125000297 heartbeat IPC: 3.99995 cumulative IPC: 3.99999 (Simulation time: 0 hr 43 min 49 sec) 

Warmup complete CPU 0 instructions: 500000004 cycles: 125000298 (Simulation time: 0 hr 43 min 49 sec) 

Heartbeat CPU 0 instructions: 510000004 cycles: 132846384 heartbeat IPC: 1.27452 cumulative IPC: 1.27452 (Simulation time: 0 hr 44 min 53 sec) 
Heartbeat CPU 0 instructions: 520000001 cycles: 140719194 heartbeat IPC: 1.27019 cumulative IPC: 1.27235 (Simulation time: 0 hr 45 min 43 sec) 
Heartbeat CPU 0 instructions: 530000003 cycles: 148591030 heartbeat IPC: 1.27035 cumulative IPC: 1.27169 (Simulation time: 0 hr 46 min 27 sec) 
Heartbeat CPU 0 instructions: 540000000 cycles: 156557840 heartbeat IPC: 1.25521 cumulative IPC: 1.26753 (Simulation time: 0 hr 47 min 28 sec) 
Heartbeat CPU 0 instructions: 550000001 cycles: 164441537 heartbeat IPC: 1.26844 cumulative IPC: 1.26771 (Simulation time: 0 hr 48 min 25 sec) 
Heartbeat CPU 0 instructions: 560000003 cycles: 172269637 heartbeat IPC: 1.27745 cumulative IPC: 1.26932 (Simulation time: 0 hr 49 min 19 sec) 
Heartbeat CPU 0 instructions: 570000002 cycles: 179911192 heartbeat IPC: 1.30863 cumulative IPC: 1.27479 (Simulation time: 0 hr 50 min 22 sec) 
Heartbeat CPU 0 instructions: 580000000 cycles: 187625250 heartbeat IPC: 1.29633 cumulative IPC: 1.27745 (Simulation time: 0 hr 51 min 17 sec) 
Heartbeat CPU 0 instructions: 590000000 cycles: 195595563 heartbeat IPC: 1.25466 cumulative IPC: 1.27487 (Simulation time: 0 hr 52 min 7 sec) 
Heartbeat CPU 0 instructions: 600000000 cycles: 203574318 heartbeat IPC: 1.25333 cumulative IPC: 1.27269 (Simulation time: 0 hr 52 min 56 sec) 
Heartbeat CPU 0 instructions: 610000002 cycles: 211563594 heartbeat IPC: 1.25168 cumulative IPC: 1.27075 (Simulation time: 0 hr 53 min 51 sec) 
Heartbeat CPU 0 instructions: 620000003 cycles: 219493151 heartbeat IPC: 1.2611 cumulative IPC: 1.26994 (Simulation time: 0 hr 54 min 49 sec) 
Heartbeat CPU 0 instructions: 630000000 cycles: 227451319 heartbeat IPC: 1.25657 cumulative IPC: 1.2689 (Simulation time: 0 hr 55 min 49 sec) 
Heartbeat CPU 0 instructions: 640000000 cycles: 235344569 heartbeat IPC: 1.26691 cumulative IPC: 1.26876 (Simulation time: 0 hr 56 min 48 sec) 
Heartbeat CPU 0 instructions: 650000000 cycles: 243251832 heartbeat IPC: 1.26466 cumulative IPC: 1.26848 (Simulation time: 0 hr 57 min 35 sec) 
Heartbeat CPU 0 instructions: 660000002 cycles: 251013741 heartbeat IPC: 1.28834 cumulative IPC: 1.26971 (Simulation time: 0 hr 58 min 31 sec) 
Heartbeat CPU 0 instructions: 670000001 cycles: 258684793 heartbeat IPC: 1.3036 cumulative IPC: 1.27165 (Simulation time: 0 hr 59 min 21 sec) 
Heartbeat CPU 0 instructions: 680000004 cycles: 266490585 heartbeat IPC: 1.2811 cumulative IPC: 1.27217 (Simulation time: 1 hr 0 min 15 sec) 
Heartbeat CPU 0 instructions: 690000003 cycles: 274507199 heartbeat IPC: 1.24741 cumulative IPC: 1.27084 (Simulation time: 1 hr 1 min 5 sec) 
Heartbeat CPU 0 instructions: 700000004 cycles: 282548244 heartbeat IPC: 1.24362 cumulative IPC: 1.26945 (Simulation time: 1 hr 1 min 55 sec) 
Heartbeat CPU 0 instructions: 710000004 cycles: 290401143 heartbeat IPC: 1.27342 cumulative IPC: 1.26964 (Simulation time: 1 hr 2 min 38 sec) 
Heartbeat CPU 0 instructions: 720000001 cycles: 298182144 heartbeat IPC: 1.28518 cumulative IPC: 1.27034 (Simulation time: 1 hr 3 min 19 sec) 
Heartbeat CPU 0 instructions: 730000000 cycles: 306053808 heartbeat IPC: 1.27038 cumulative IPC: 1.27034 (Simulation time: 1 hr 4 min 2 sec) 
Heartbeat CPU 0 instructions: 740000000 cycles: 313837513 heartbeat IPC: 1.28474 cumulative IPC: 1.27094 (Simulation time: 1 hr 5 min 3 sec) 
Heartbeat CPU 0 instructions: 750000003 cycles: 321765841 heartbeat IPC: 1.2613 cumulative IPC: 1.27055 (Simulation time: 1 hr 5 min 55 sec) 
Heartbeat CPU 0 instructions: 760000001 cycles: 329717572 heartbeat IPC: 1.25759 cumulative IPC: 1.27004 (Simulation time: 1 hr 6 min 42 sec) 
Heartbeat CPU 0 instructions: 770000001 cycles: 337726052 heartbeat IPC: 1.24868 cumulative IPC: 1.26924 (Simulation time: 1 hr 7 min 31 sec) 
Heartbeat CPU 0 instructions: 780000004 cycles: 345862318 heartbeat IPC: 1.22907 cumulative IPC: 1.26776 (Simulation time: 1 hr 8 min 26 sec) 
Heartbeat CPU 0 instructions: 790000001 cycles: 353892121 heartbeat IPC: 1.24536 cumulative IPC: 1.26697 (Simulation time: 1 hr 9 min 28 sec) 
Heartbeat CPU 0 instructions: 800000002 cycles: 361736781 heartbeat IPC: 1.27475 cumulative IPC: 1.26723 (Simulation time: 1 hr 10 min 30 sec) 
Heartbeat CPU 0 instructions: 810000000 cycles: 369551654 heartbeat IPC: 1.27961 cumulative IPC: 1.26763 (Simulation time: 1 hr 11 min 22 sec) 
Heartbeat CPU 0 instructions: 820000000 cycles: 377269329 heartbeat IPC: 1.29573 cumulative IPC: 1.26849 (Simulation time: 1 hr 12 min 21 sec) 
Heartbeat CPU 0 instructions: 830000000 cycles: 385007571 heartbeat IPC: 1.29228 cumulative IPC: 1.2692 (Simulation time: 1 hr 13 min 25 sec) 
Heartbeat CPU 0 instructions: 840000003 cycles: 392702246 heartbeat IPC: 1.2996 cumulative IPC: 1.27007 (Simulation time: 1 hr 14 min 17 sec) 
Heartbeat CPU 0 instructions: 850000000 cycles: 400562245 heartbeat IPC: 1.27226 cumulative IPC: 1.27013 (Simulation time: 1 hr 15 min 14 sec) 
Heartbeat CPU 0 instructions: 860000001 cycles: 408341709 heartbeat IPC: 1.28544 cumulative IPC: 1.27055 (Simulation time: 1 hr 16 min 17 sec) 
Heartbeat CPU 0 instructions: 870000000 cycles: 416044042 heartbeat IPC: 1.29831 cumulative IPC: 1.27129 (Simulation time: 1 hr 17 min 16 sec) 
Heartbeat CPU 0 instructions: 880000003 cycles: 423936720 heartbeat IPC: 1.267 cumulative IPC: 1.27117 (Simulation time: 1 hr 18 min 8 sec) 
Heartbeat CPU 0 instructions: 890000003 cycles: 431774694 heartbeat IPC: 1.27584 cumulative IPC: 1.27129 (Simulation time: 1 hr 18 min 57 sec) 
Heartbeat CPU 0 instructions: 900000000 cycles: 439543838 heartbeat IPC: 1.28714 cumulative IPC: 1.27168 (Simulation time: 1 hr 19 min 56 sec) 
Heartbeat CPU 0 instructions: 910000001 cycles: 447240299 heartbeat IPC: 1.2993 cumulative IPC: 1.27234 (Simulation time: 1 hr 20 min 45 sec) 
Heartbeat CPU 0 instructions: 920000004 cycles: 454996007 heartbeat IPC: 1.28937 cumulative IPC: 1.27274 (Simulation time: 1 hr 21 min 47 sec) 
Heartbeat CPU 0 instructions: 930000002 cycles: 462616336 heartbeat IPC: 1.31228 cumulative IPC: 1.27364 (Simulation time: 1 hr 22 min 40 sec) 
Heartbeat CPU 0 instructions: 940000004 cycles: 470288746 heartbeat IPC: 1.30337 cumulative IPC: 1.2743 (Simulation time: 1 hr 23 min 32 sec) 
Heartbeat CPU 0 instructions: 950000000 cycles: 477956750 heartbeat IPC: 1.30412 cumulative IPC: 1.27494 (Simulation time: 1 hr 24 min 35 sec) 
Heartbeat CPU 0 instructions: 960000001 cycles: 485824108 heartbeat IPC: 1.27107 cumulative IPC: 1.27486 (Simulation time: 1 hr 25 min 37 sec) 
Heartbeat CPU 0 instructions: 970000002 cycles: 493562883 heartbeat IPC: 1.29219 cumulative IPC: 1.27522 (Simulation time: 1 hr 26 min 39 sec) 
Heartbeat CPU 0 instructions: 980000000 cycles: 501336571 heartbeat IPC: 1.28639 cumulative IPC: 1.27545 (Simulation time: 1 hr 27 min 42 sec) 
Heartbeat CPU 0 instructions: 990000003 cycles: 509004225 heartbeat IPC: 1.30418 cumulative IPC: 1.27603 (Simulation time: 1 hr 28 min 38 sec) 
Heartbeat CPU 0 instructions: 1000000003 cycles: 516963763 heartbeat IPC: 1.25635 cumulative IPC: 1.27563 (Simulation time: 1 hr 29 min 21 sec) 
Heartbeat CPU 0 instructions: 1010000001 cycles: 524547773 heartbeat IPC: 1.31856 cumulative IPC: 1.27644 (Simulation time: 1 hr 30 min 20 sec) 
Heartbeat CPU 0 instructions: 1020000002 cycles: 532206512 heartbeat IPC: 1.3057 cumulative IPC: 1.27699 (Simulation time: 1 hr 31 min 19 sec) 
Heartbeat CPU 0 instructions: 1030000000 cycles: 540071552 heartbeat IPC: 1.27145 cumulative IPC: 1.27689 (Simulation time: 1 hr 32 min 12 sec) 
Heartbeat CPU 0 instructions: 1040000001 cycles: 547866813 heartbeat IPC: 1.28283 cumulative IPC: 1.277 (Simulation time: 1 hr 33 min 12 sec) 
Heartbeat CPU 0 instructions: 1050000001 cycles: 555638531 heartbeat IPC: 1.28672 cumulative IPC: 1.27717 (Simulation time: 1 hr 34 min 14 sec) 
Heartbeat CPU 0 instructions: 1060000001 cycles: 563554197 heartbeat IPC: 1.26332 cumulative IPC: 1.27692 (Simulation time: 1 hr 35 min 16 sec) 
Heartbeat CPU 0 instructions: 1070000002 cycles: 571406381 heartbeat IPC: 1.27353 cumulative IPC: 1.27686 (Simulation time: 1 hr 36 min 17 sec) 
Heartbeat CPU 0 instructions: 1080000000 cycles: 579205726 heartbeat IPC: 1.28216 cumulative IPC: 1.27696 (Simulation time: 1 hr 37 min 1 sec) 
Heartbeat CPU 0 instructions: 1090000002 cycles: 587119454 heartbeat IPC: 1.26363 cumulative IPC: 1.27673 (Simulation time: 1 hr 37 min 57 sec) 
Heartbeat CPU 0 instructions: 1100000001 cycles: 594845436 heartbeat IPC: 1.29433 cumulative IPC: 1.27702 (Simulation time: 1 hr 39 min 2 sec) 
Heartbeat CPU 0 instructions: 1110000003 cycles: 602838899 heartbeat IPC: 1.25102 cumulative IPC: 1.27658 (Simulation time: 1 hr 40 min 3 sec) 
Heartbeat CPU 0 instructions: 1120000000 cycles: 610744554 heartbeat IPC: 1.26492 cumulative IPC: 1.27639 (Simulation time: 1 hr 41 min 7 sec) 
Heartbeat CPU 0 instructions: 1130000001 cycles: 618588347 heartbeat IPC: 1.27489 cumulative IPC: 1.27637 (Simulation time: 1 hr 42 min 7 sec) 
Heartbeat CPU 0 instructions: 1140000000 cycles: 626385716 heartbeat IPC: 1.28248 cumulative IPC: 1.27646 (Simulation time: 1 hr 43 min 10 sec) 
Heartbeat CPU 0 instructions: 1150000000 cycles: 634269758 heartbeat IPC: 1.26838 cumulative IPC: 1.27634 (Simulation time: 1 hr 44 min 15 sec) 
Heartbeat CPU 0 instructions: 1160000000 cycles: 642172485 heartbeat IPC: 1.26539 cumulative IPC: 1.27617 (Simulation time: 1 hr 45 min 12 sec) 
Heartbeat CPU 0 instructions: 1170000002 cycles: 650048415 heartbeat IPC: 1.26969 cumulative IPC: 1.27607 (Simulation time: 1 hr 46 min 8 sec) 
Heartbeat CPU 0 instructions: 1180000001 cycles: 657986130 heartbeat IPC: 1.25981 cumulative IPC: 1.27583 (Simulation time: 1 hr 47 min 7 sec) 
Heartbeat CPU 0 instructions: 1190000000 cycles: 665814512 heartbeat IPC: 1.2774 cumulative IPC: 1.27585 (Simulation time: 1 hr 48 min 7 sec) 
Heartbeat CPU 0 instructions: 1200000000 cycles: 673564964 heartbeat IPC: 1.29025 cumulative IPC: 1.27606 (Simulation time: 1 hr 49 min 10 sec) 
Heartbeat CPU 0 instructions: 1210000003 cycles: 681455135 heartbeat IPC: 1.2674 cumulative IPC: 1.27593 (Simulation time: 1 hr 50 min 6 sec) 
Heartbeat CPU 0 instructions: 1220000001 cycles: 689472316 heartbeat IPC: 1.24732 cumulative IPC: 1.27553 (Simulation time: 1 hr 50 min 47 sec) 
Heartbeat CPU 0 instructions: 1230000002 cycles: 697329981 heartbeat IPC: 1.27264 cumulative IPC: 1.27549 (Simulation time: 1 hr 51 min 32 sec) 
Heartbeat CPU 0 instructions: 1240000001 cycles: 705207541 heartbeat IPC: 1.26943 cumulative IPC: 1.27541 (Simulation time: 1 hr 52 min 36 sec) 
Heartbeat CPU 0 instructions: 1250000001 cycles: 713201129 heartbeat IPC: 1.251 cumulative IPC: 1.27507 (Simulation time: 1 hr 53 min 30 sec) 
Heartbeat CPU 0 instructions: 1260000001 cycles: 721009038 heartbeat IPC: 1.28075 cumulative IPC: 1.27515 (Simulation time: 1 hr 54 min 27 sec) 
Heartbeat CPU 0 instructions: 1270000001 cycles: 728824966 heartbeat IPC: 1.27944 cumulative IPC: 1.2752 (Simulation time: 1 hr 55 min 23 sec) 
Heartbeat CPU 0 instructions: 1280000000 cycles: 736701447 heartbeat IPC: 1.2696 cumulative IPC: 1.27513 (Simulation time: 1 hr 56 min 12 sec) 
Heartbeat CPU 0 instructions: 1290000002 cycles: 744431534 heartbeat IPC: 1.29365 cumulative IPC: 1.27536 (Simulation time: 1 hr 57 min 10 sec) 
Heartbeat CPU 0 instructions: 1300000000 cycles: 752237488 heartbeat IPC: 1.28107 cumulative IPC: 1.27543 (Simulation time: 1 hr 57 min 59 sec) 
Heartbeat CPU 0 instructions: 1310000002 cycles: 760041153 heartbeat IPC: 1.28145 cumulative IPC: 1.27551 (Simulation time: 1 hr 59 min 3 sec) 
Heartbeat CPU 0 instructions: 1320000000 cycles: 767915458 heartbeat IPC: 1.26995 cumulative IPC: 1.27544 (Simulation time: 1 hr 59 min 48 sec) 
Heartbeat CPU 0 instructions: 1330000003 cycles: 775755339 heartbeat IPC: 1.27553 cumulative IPC: 1.27544 (Simulation time: 2 hr 0 min 43 sec) 
Heartbeat CPU 0 instructions: 1340000000 cycles: 783620340 heartbeat IPC: 1.27146 cumulative IPC: 1.27539 (Simulation time: 2 hr 1 min 33 sec) 
Heartbeat CPU 0 instructions: 1350000001 cycles: 791448507 heartbeat IPC: 1.27744 cumulative IPC: 1.27542 (Simulation time: 2 hr 2 min 11 sec) 
Heartbeat CPU 0 instructions: 1360000002 cycles: 799371209 heartbeat IPC: 1.2622 cumulative IPC: 1.27526 (Simulation time: 2 hr 2 min 53 sec) 
Heartbeat CPU 0 instructions: 1370000000 cycles: 807306812 heartbeat IPC: 1.26014 cumulative IPC: 1.27509 (Simulation time: 2 hr 3 min 35 sec) 
Heartbeat CPU 0 instructions: 1380000004 cycles: 815193598 heartbeat IPC: 1.26794 cumulative IPC: 1.27501 (Simulation time: 2 hr 4 min 38 sec) 
Heartbeat CPU 0 instructions: 1390000002 cycles: 823104769 heartbeat IPC: 1.26404 cumulative IPC: 1.27488 (Simulation time: 2 hr 5 min 27 sec) 
Heartbeat CPU 0 instructions: 1400000002 cycles: 830967324 heartbeat IPC: 1.27185 cumulative IPC: 1.27485 (Simulation time: 2 hr 6 min 12 sec) 
Heartbeat CPU 0 instructions: 1410000004 cycles: 838817285 heartbeat IPC: 1.27389 cumulative IPC: 1.27484 (Simulation time: 2 hr 7 min 12 sec) 
Heartbeat CPU 0 instructions: 1420000004 cycles: 846823904 heartbeat IPC: 1.24897 cumulative IPC: 1.27455 (Simulation time: 2 hr 8 min 3 sec) 
Heartbeat CPU 0 instructions: 1430000001 cycles: 854951477 heartbeat IPC: 1.23038 cumulative IPC: 1.27406 (Simulation time: 2 hr 8 min 48 sec) 
Heartbeat CPU 0 instructions: 1440000001 cycles: 862836552 heartbeat IPC: 1.26822 cumulative IPC: 1.274 (Simulation time: 2 hr 9 min 30 sec) 
Heartbeat CPU 0 instructions: 1450000000 cycles: 870693041 heartbeat IPC: 1.27283 cumulative IPC: 1.27398 (Simulation time: 2 hr 10 min 10 sec) 
Heartbeat CPU 0 instructions: 1460000000 cycles: 878668870 heartbeat IPC: 1.25379 cumulative IPC: 1.27377 (Simulation time: 2 hr 11 min 8 sec) 
Heartbeat CPU 0 instructions: 1470000004 cycles: 886587693 heartbeat IPC: 1.26281 cumulative IPC: 1.27366 (Simulation time: 2 hr 11 min 51 sec) 
Heartbeat CPU 0 instructions: 1480000000 cycles: 894368243 heartbeat IPC: 1.28526 cumulative IPC: 1.27377 (Simulation time: 2 hr 12 min 52 sec) 
Heartbeat CPU 0 instructions: 1490000000 cycles: 902419090 heartbeat IPC: 1.24211 cumulative IPC: 1.27344 (Simulation time: 2 hr 13 min 40 sec) 
Heartbeat CPU 0 instructions: 1500000002 cycles: 910406895 heartbeat IPC: 1.25191 cumulative IPC: 1.27323 (Simulation time: 2 hr 14 min 40 sec) 
Heartbeat CPU 0 instructions: 1510000000 cycles: 918403879 heartbeat IPC: 1.25047 cumulative IPC: 1.273 (Simulation time: 2 hr 15 min 35 sec) 
Heartbeat CPU 0 instructions: 1520000001 cycles: 926294531 heartbeat IPC: 1.26732 cumulative IPC: 1.27294 (Simulation time: 2 hr 16 min 36 sec) 
Heartbeat CPU 0 instructions: 1530000001 cycles: 934270843 heartbeat IPC: 1.25371 cumulative IPC: 1.27275 (Simulation time: 2 hr 17 min 31 sec) 
Heartbeat CPU 0 instructions: 1540000003 cycles: 942295374 heartbeat IPC: 1.24618 cumulative IPC: 1.27249 (Simulation time: 2 hr 18 min 27 sec) 
Heartbeat CPU 0 instructions: 1550000001 cycles: 950341581 heartbeat IPC: 1.24282 cumulative IPC: 1.2722 (Simulation time: 2 hr 19 min 29 sec) 
Heartbeat CPU 0 instructions: 1560000003 cycles: 958311250 heartbeat IPC: 1.25476 cumulative IPC: 1.27203 (Simulation time: 2 hr 20 min 23 sec) 
Heartbeat CPU 0 instructions: 1570000000 cycles: 966173623 heartbeat IPC: 1.27188 cumulative IPC: 1.27203 (Simulation time: 2 hr 21 min 18 sec) 
Heartbeat CPU 0 instructions: 1580000003 cycles: 974034567 heartbeat IPC: 1.27211 cumulative IPC: 1.27203 (Simulation time: 2 hr 22 min 4 sec) 
Heartbeat CPU 0 instructions: 1590000000 cycles: 981768452 heartbeat IPC: 1.29301 cumulative IPC: 1.27222 (Simulation time: 2 hr 22 min 46 sec) 
Heartbeat CPU 0 instructions: 1600000004 cycles: 989550597 heartbeat IPC: 1.28499 cumulative IPC: 1.27234 (Simulation time: 2 hr 23 min 39 sec) 
Heartbeat CPU 0 instructions: 1610000002 cycles: 997360281 heartbeat IPC: 1.28046 cumulative IPC: 1.27241 (Simulation time: 2 hr 24 min 29 sec) 
Heartbeat CPU 0 instructions: 1620000000 cycles: 1005198740 heartbeat IPC: 1.27576 cumulative IPC: 1.27244 (Simulation time: 2 hr 25 min 27 sec) 
Heartbeat CPU 0 instructions: 1630000000 cycles: 1012988145 heartbeat IPC: 1.2838 cumulative IPC: 1.27254 (Simulation time: 2 hr 26 min 28 sec) 
Heartbeat CPU 0 instructions: 1640000002 cycles: 1020787592 heartbeat IPC: 1.28214 cumulative IPC: 1.27262 (Simulation time: 2 hr 27 min 23 sec) 
Heartbeat CPU 0 instructions: 1650000004 cycles: 1028691729 heartbeat IPC: 1.26516 cumulative IPC: 1.27256 (Simulation time: 2 hr 28 min 2 sec) 
Heartbeat CPU 0 instructions: 1660000000 cycles: 1036726243 heartbeat IPC: 1.24463 cumulative IPC: 1.27231 (Simulation time: 2 hr 28 min 40 sec) 
Heartbeat CPU 0 instructions: 1670000003 cycles: 1044488987 heartbeat IPC: 1.2882 cumulative IPC: 1.27245 (Simulation time: 2 hr 29 min 20 sec) 
Heartbeat CPU 0 instructions: 1680000002 cycles: 1052433215 heartbeat IPC: 1.25878 cumulative IPC: 1.27233 (Simulation time: 2 hr 30 min 12 sec) 
Heartbeat CPU 0 instructions: 1690000001 cycles: 1060299311 heartbeat IPC: 1.27128 cumulative IPC: 1.27232 (Simulation time: 2 hr 30 min 55 sec) 
Heartbeat CPU 0 instructions: 1700000003 cycles: 1068334733 heartbeat IPC: 1.24449 cumulative IPC: 1.27208 (Simulation time: 2 hr 31 min 32 sec) 
Heartbeat CPU 0 instructions: 1710000001 cycles: 1076332765 heartbeat IPC: 1.25031 cumulative IPC: 1.2719 (Simulation time: 2 hr 32 min 8 sec) 
Heartbeat CPU 0 instructions: 1720000002 cycles: 1084179284 heartbeat IPC: 1.27445 cumulative IPC: 1.27192 (Simulation time: 2 hr 32 min 46 sec) 
Heartbeat CPU 0 instructions: 1730000003 cycles: 1092072825 heartbeat IPC: 1.26686 cumulative IPC: 1.27188 (Simulation time: 2 hr 33 min 22 sec) 
Heartbeat CPU 0 instructions: 1740000002 cycles: 1100102301 heartbeat IPC: 1.24541 cumulative IPC: 1.27166 (Simulation time: 2 hr 33 min 58 sec) 
Heartbeat CPU 0 instructions: 1750000003 cycles: 1108069302 heartbeat IPC: 1.25518 cumulative IPC: 1.27153 (Simulation time: 2 hr 34 min 35 sec) 
Heartbeat CPU 0 instructions: 1760000004 cycles: 1115841241 heartbeat IPC: 1.28668 cumulative IPC: 1.27165 (Simulation time: 2 hr 35 min 11 sec) 
Heartbeat CPU 0 instructions: 1770000003 cycles: 1123630223 heartbeat IPC: 1.28386 cumulative IPC: 1.27174 (Simulation time: 2 hr 35 min 47 sec) 
Heartbeat CPU 0 instructions: 1780000002 cycles: 1131692738 heartbeat IPC: 1.24031 cumulative IPC: 1.27149 (Simulation time: 2 hr 36 min 23 sec) 
Heartbeat CPU 0 instructions: 1790000002 cycles: 1139788212 heartbeat IPC: 1.23526 cumulative IPC: 1.2712 (Simulation time: 2 hr 36 min 59 sec) 
Heartbeat CPU 0 instructions: 1800000003 cycles: 1147764266 heartbeat IPC: 1.25375 cumulative IPC: 1.27107 (Simulation time: 2 hr 37 min 35 sec) 
Heartbeat CPU 0 instructions: 1810000000 cycles: 1155570040 heartbeat IPC: 1.2811 cumulative IPC: 1.27114 (Simulation time: 2 hr 38 min 11 sec) 
Heartbeat CPU 0 instructions: 1820000000 cycles: 1163489342 heartbeat IPC: 1.26274 cumulative IPC: 1.27108 (Simulation time: 2 hr 38 min 48 sec) 
Heartbeat CPU 0 instructions: 1830000001 cycles: 1171484018 heartbeat IPC: 1.25083 cumulative IPC: 1.27092 (Simulation time: 2 hr 39 min 24 sec) 
Heartbeat CPU 0 instructions: 1840000001 cycles: 1179389048 heartbeat IPC: 1.26502 cumulative IPC: 1.27088 (Simulation time: 2 hr 40 min 1 sec) 
Heartbeat CPU 0 instructions: 1850000002 cycles: 1187338655 heartbeat IPC: 1.25792 cumulative IPC: 1.27078 (Simulation time: 2 hr 40 min 37 sec) 
Heartbeat CPU 0 instructions: 1860000000 cycles: 1195330190 heartbeat IPC: 1.25132 cumulative IPC: 1.27064 (Simulation time: 2 hr 41 min 12 sec) 
Heartbeat CPU 0 instructions: 1870000001 cycles: 1203091615 heartbeat IPC: 1.28842 cumulative IPC: 1.27076 (Simulation time: 2 hr 41 min 48 sec) 
Heartbeat CPU 0 instructions: 1880000000 cycles: 1210937630 heartbeat IPC: 1.27453 cumulative IPC: 1.27079 (Simulation time: 2 hr 42 min 24 sec) 
Heartbeat CPU 0 instructions: 1890000002 cycles: 1218767349 heartbeat IPC: 1.27719 cumulative IPC: 1.27084 (Simulation time: 2 hr 43 min 1 sec) 
Heartbeat CPU 0 instructions: 1900000000 cycles: 1226720366 heartbeat IPC: 1.25738 cumulative IPC: 1.27074 (Simulation time: 2 hr 43 min 37 sec) 
Heartbeat CPU 0 instructions: 1910000000 cycles: 1234597043 heartbeat IPC: 1.26957 cumulative IPC: 1.27073 (Simulation time: 2 hr 44 min 13 sec) 
Heartbeat CPU 0 instructions: 1920000000 cycles: 1242504434 heartbeat IPC: 1.26464 cumulative IPC: 1.27069 (Simulation time: 2 hr 44 min 48 sec) 
Heartbeat CPU 0 instructions: 1930000002 cycles: 1250359890 heartbeat IPC: 1.273 cumulative IPC: 1.2707 (Simulation time: 2 hr 45 min 24 sec) 
Heartbeat CPU 0 instructions: 1940000000 cycles: 1258265874 heartbeat IPC: 1.26486 cumulative IPC: 1.27066 (Simulation time: 2 hr 46 min 1 sec) 
Heartbeat CPU 0 instructions: 1950000003 cycles: 1266188917 heartbeat IPC: 1.26214 cumulative IPC: 1.27061 (Simulation time: 2 hr 46 min 36 sec) 
Heartbeat CPU 0 instructions: 1960000003 cycles: 1274096452 heartbeat IPC: 1.26462 cumulative IPC: 1.27056 (Simulation time: 2 hr 47 min 12 sec) 
Heartbeat CPU 0 instructions: 1970000003 cycles: 1282051090 heartbeat IPC: 1.25713 cumulative IPC: 1.27047 (Simulation time: 2 hr 47 min 49 sec) 
Heartbeat CPU 0 instructions: 1980000001 cycles: 1290025297 heartbeat IPC: 1.25404 cumulative IPC: 1.27036 (Simulation time: 2 hr 48 min 27 sec) 
Heartbeat CPU 0 instructions: 1990000002 cycles: 1297827840 heartbeat IPC: 1.28163 cumulative IPC: 1.27043 (Simulation time: 2 hr 49 min 2 sec) 
*** Reached end of trace: traces/631.deepsjeng_s-928B.champsimtrace.xz
Heartbeat CPU 0 instructions: 2000000002 cycles: 1305663690 heartbeat IPC: 1.27619 cumulative IPC: 1.27047 (Simulation time: 2 hr 49 min 39 sec) 
Finished CPU 0 instructions: 1500000000 cycles: 1180663401 cumulative IPC: 1.27047 (Simulation time: 2 hr 49 min 39 sec) 

ChampSim completed all CPUs

Region of Interest Statistics

CPU 0 cumulative IPC: 1.27047 instructions: 1500000000 cycles: 1180663401
cpu0_DTLB TOTAL     ACCESS:  280658769  HIT:  280182400  MISS:     476369
cpu0_DTLB LOAD      ACCESS:  195832573  HIT:  195377629  MISS:     454944
cpu0_DTLB RFO       ACCESS:   84826196  HIT:   84804771  MISS:      21425
cpu0_DTLB PREFETCH  ACCESS:          0  HIT:          0  MISS:          0
cpu0_DTLB WRITEBACK ACCESS:          0  HIT:          0  MISS:          0
cpu0_DTLB TRANSLATION ACCESS:          0  HIT:          0  MISS:          0
cpu0_DTLB PREFETCH  REQUESTED:          0  ISSUED:          0  USEFUL:          0  USELESS:          0
cpu0_DTLB AVERAGE MISS LATENCY: 99.3581 cycles
cpu0_ITLB TOTAL     ACCESS:  114838858  HIT:  114838858  MISS:          0
cpu0_ITLB LOAD      ACCESS:  114838858  HIT:  114838858  MISS:          0
cpu0_ITLB RFO       ACCESS:          0  HIT:          0  MISS:          0
cpu0_ITLB PREFETCH  ACCESS:          0  HIT:          0  MISS:          0
cpu0_ITLB WRITEBACK ACCESS:          0  HIT:          0  MISS:          0
cpu0_ITLB TRANSLATION ACCESS:          0  HIT:          0  MISS:          0
cpu0_ITLB PREFETCH  REQUESTED:          0  ISSUED:          0  USEFUL:          0  USELESS:          0
cpu0_ITLB AVERAGE MISS LATENCY: -nan cycles
cpu0_L1I TOTAL     ACCESS:  162963470  HIT:  162131858  MISS:     831612
cpu0_L1I LOAD      ACCESS:  162963470  HIT:  162131858  MISS:     831612
cpu0_L1I RFO       ACCESS:          0  HIT:          0  MISS:          0
cpu0_L1I PREFETCH  ACCESS:          0  HIT:          0  MISS:          0
cpu0_L1I WRITEBACK ACCESS:          0  HIT:          0  MISS:          0
cpu0_L1I TRANSLATION ACCESS:          0  HIT:          0  MISS:          0
cpu0_L1I PREFETCH  REQUESTED:          0  ISSUED:          0  USEFUL:          0  USELESS:          0
cpu0_L1I AVERAGE MISS LATENCY: 11.3456 cycles
cpu0_STLB TOTAL     ACCESS:     476369  HIT:     224148  MISS:     252221
cpu0_STLB LOAD      ACCESS:     454944  HIT:     203034  MISS:     251910
cpu0_STLB RFO       ACCESS:      21425  HIT:      21114  MISS:        311
cpu0_STLB PREFETCH  ACCESS:          0  HIT:          0  MISS:          0
cpu0_STLB WRITEBACK ACCESS:          0  HIT:          0  MISS:          0
cpu0_STLB TRANSLATION ACCESS:          0  HIT:          0  MISS:          0
cpu0_STLB PREFETCH  REQUESTED:          0  ISSUED:          0  USEFUL:          0  USELESS:          0
cpu0_STLB AVERAGE MISS LATENCY: 170.655 cycles
cpu0_L1D TOTAL     ACCESS:  404564293  HIT:  403301201  MISS:    1263092
cpu0_L1D LOAD      ACCESS:  227486785  HIT:  226718720  MISS:     768065
cpu0_L1D RFO       ACCESS:  176826919  HIT:  176538154  MISS:     288765
cpu0_L1D PREFETCH  ACCESS:          0  HIT:          0  MISS:          0
cpu0_L1D WRITEBACK ACCESS:          0  HIT:          0  MISS:          0
cpu0_L1D TRANSLATION ACCESS:     250589  HIT:      44327  MISS:     206262
cpu0_L1D PREFETCH  REQUESTED:          0  ISSUED:          0  USEFUL:          0  USELESS:          0
cpu0_L1D AVERAGE MISS LATENCY: 68.8068 cycles
cpu0_L2C TOTAL     ACCESS:    2720708  HIT:    2297154  MISS:     423554
cpu0_L2C LOAD      ACCESS:    1599673  HIT:    1189333  MISS:     410340
cpu0_L2C RFO       ACCESS:     288760  HIT:     277288  MISS:      11472
cpu0_L2C PREFETCH  ACCESS:          0  HIT:          0  MISS:          0
cpu0_L2C WRITEBACK ACCESS:     626013  HIT:     625137  MISS:        876
cpu0_L2C TRANSLATION ACCESS:     206262  HIT:     205396  MISS:        866
cpu0_L2C PREFETCH  REQUESTED:          0  ISSUED:          0  USEFUL:          0  USELESS:          0
cpu0_L2C AVERAGE MISS LATENCY: 172.962 cycles
LLC TOTAL     ACCESS:     714445  HIT:     320726  MISS:     393719
LLC LOAD      ACCESS:     410340  HIT:      23317  MISS:     387023
LLC RFO       ACCESS:      11472  HIT:       7870  MISS:       3602
LLC PREFETCH  ACCESS:          0  HIT:          0  MISS:          0
LLC WRITEBACK ACCESS:     291767  HIT:     289334  MISS:       2433
LLC TRANSLATION ACCESS:        866  HIT:        205  MISS:        661
LLC PREFETCH  REQUESTED:          0  ISSUED:          0  USEFUL:          0  USELESS:          0
LLC AVERAGE MISS LATENCY: 163.524 cycles
~~~~~~~~~~Reuse Distance Profiler output~~~~~~~~~~
0	107908400	16412112
1	42018704	15896112
2	33264416	14526208
3	26456704	13663488
4	22052608	12799680
5	16672768	10046608
6	15531968	9722336
7	12254640	7970032
8	10239648	6318592
9	8996736	5751792
10	7849312	5119712
11	7470352	5035552
12	7198944	4950064
13	6507008	4488896
14	6222928	4373504
15	5585376	3932384
16	6187600	4371600
17	5712816	4168256
18	4385488	3091280
19	3854384	2708752
20	3527328	2438000
21	3209280	2259680
22	3119600	2209328
23	3109552	2233120
24	3011376	2137744
25	2790592	1938048
26	2718336	1978624
27	2482016	1786240
28	2295760	1644464
29	2205520	1550704
30	2154720	1514784
31	1981984	1439360
32	1901328	1409536
33	1814336	1363056
34	1694976	1231536
35	1596656	1194816
36	1452576	1100592
37	1380672	1041344
38	1347232	1014096
39	1224576	921248
40	1151104	870688
41	1185488	884912
42	1200128	919056
43	1104608	842192
44	1129744	870496
45	1075536	824224
46	1035152	784720
47	1020544	769776
48	974192	722064
49	956240	700240
50	916960	666288
51	911200	683936
52	866176	642464
53	833120	612576
54	782192	577968
55	775136	584096
56	757200	581376
57	742736	573536
58	711936	543920
59	669232	503424
60	666304	503072
61	651376	480416
62	631056	472208
63	606992	442560
64	1149712	837312
66	1128080	834432
68	1136976	846496
70	1115104	828672
72	1152640	874464
74	1144416	869632
76	1141008	867664
78	1123392	864896
80	1067856	831568
82	1034560	808752
84	1035984	827584
86	1000912	817168
88	981616	810224
90	951984	791824
92	920896	777216
94	862384	731792
96	820496	700800
98	773008	658272
100	753104	649456
102	741824	644560
104	736400	645888
106	721392	637856
108	698112	623648
110	661328	590368
112	601552	532832
114	582448	513952
116	553104	485024
118	515872	450352
120	501456	432784
122	474896	408256
124	469136	400112
126	477824	403888
128	970272	829760
132	890416	764304
136	969008	849696
140	915664	789504
144	796960	661024
148	800640	662672
152	798016	669600
156	761088	635376
160	676512	563600
164	572240	476832
168	488448	410656
172	435376	371216
176	404544	346048
180	407776	349344
184	397728	332992
188	359872	294480
192	346656	281984
196	348528	282960
200	359808	296704
204	366016	310496
208	357344	308768
212	357616	313184
216	361424	317408
220	369520	324352
224	361808	318128
228	359568	319840
232	357600	324656
236	346624	315344
240	331808	300848
244	320624	291824
248	316496	286624
252	313520	285408
256	606080	546320
264	582768	521632
272	567616	506400
280	559392	503616
288	520640	469680
296	481360	431328
304	479392	426928
312	465504	413792
320	451072	398432
328	441136	393904
336	421216	375440
344	383968	341120
352	361872	320080
360	357888	314448
368	342944	303952
376	335328	298944
384	332416	297120
392	322112	288864
400	317232	283504
408	314544	281040
416	311504	277888
424	315088	282080
432	310544	278320
440	325168	290800
448	333280	298720
456	335824	302608
464	343552	309072
472	345024	312208
480	350800	318048
488	343616	313040
496	351984	321248
504	346240	313776
512	674000	608480
528	647648	588352
544	621408	567456
560	625456	575104
576	598624	551008
592	583392	537296
608	581536	529712
624	565328	508864
640	563568	503200
656	562720	492384
672	575232	493728
688	604976	511680
704	647504	536736
720	700768	576272
736	755872	623072
752	786832	645632
768	794352	651888
784	777136	637104
800	771472	631344
816	774240	639248
832	766848	633760
848	762704	633312
864	744512	625312
880	703728	593056
896	648064	547424
912	580416	492000
928	535808	453392
944	501136	429344
960	467056	403040
976	442736	382944
992	406128	354288
1008	386080	336800
1024	687520	601696
1056	622944	546368
1088	566432	498400
1120	522352	461568
1152	488176	430288
1184	466144	411056
1216	444096	392208
1248	429936	379312
1280	409792	360384
1312	394384	347408
1344	379136	333952
1376	359952	318976
1408	346128	303408
1440	333520	294368
1472	324624	284592
1504	313440	276592
1536	303984	267296
1568	300144	264768
1600	299376	264608
1632	290432	256720
1664	296768	261632
1696	284528	250896
1728	280064	246688
1760	273872	241200
1792	267456	236000
1824	258176	226736
1856	261920	229776
1888	252528	220320
1920	254368	222592
1952	241856	211760
1984	236464	206192
2016	231760	203152
2048	439680	382656
2112	408720	356000
2176	374736	324224
2240	347200	299568
2304	321088	274688
2368	308768	262432
2432	290960	246704
2496	276176	231120
2560	263312	221296
2624	248528	205888
2688	239600	198304
2752	226288	185680
2816	223504	181824
2880	206288	167296
2944	197264	158560
3008	195744	157040
3072	186192	149824
3136	181808	145152
3200	175104	139664
3264	164416	130960
3328	161024	129472
3392	156992	124688
3456	148320	119232
3520	142288	113840
3584	140256	111328
3648	133024	105664
3712	131696	105632
3776	125776	100720
3840	118448	94864
3904	120736	97056
3968	117568	94032
4032	110992	88736
4096	216160	172576
4224	206640	165344
4352	195520	155376
4480	185824	148192
4608	178944	141616
4736	172976	137040
4864	164480	130272
4992	155312	122400
5120	143264	113568
5248	139264	107792
5376	134048	104992
5504	129472	100512
5632	122544	94432
5760	119424	91408
5888	114304	89056
6016	110848	84768
6144	105312	80928
6272	102288	78064
6400	98544	74800
6528	94864	72112
6656	89936	66912
6784	89008	66224
6912	88320	65872
7040	83792	62544
7168	83344	61360
7296	80240	59840
7424	76864	57888
7552	76784	56752
7680	73568	53936
7808	71696	53392
7936	72720	55168
8064	68240	50752
8192	130224	95664
8448	126800	93296
8704	120320	88160
8960	113120	83216
9216	111968	81792
9472	108752	76240
9728	100416	72368
9984	97392	69344
10240	95104	69008
10496	89680	63824
10752	90704	65120
11008	86640	62464
11264	83152	59760
11520	81280	58160
11776	80368	57600
12032	75040	53024
12288	72592	51664
12544	69696	49344
12800	68560	49136
13056	65616	46464
13312	62656	44176
13568	60064	42176
13824	59488	41888
14080	58000	40672
14336	57504	39808
14592	55952	39280
14848	53248	37328
15104	51696	36288
15360	49584	35168
15616	47952	33248
15872	46944	31952
16128	45888	31744
16384	90496	61488
16896	83248	57856
17408	81456	56192
17920	75264	52272
18432	72880	50048
18944	69696	48304
19456	66640	45760
19968	62992	42544
20480	59856	41424
20992	59392	40752
21504	54208	37680
22016	53216	37488
22528	52960	36304
23040	48448	33088
23552	48256	31632
24064	45872	30528
24576	45136	29872
25088	41344	28144
25600	41616	27216
26112	37392	24528
26624	38544	26432
27136	36320	25136
27648	35408	23808
28160	32832	21456
28672	34320	22960
29184	32224	20896
29696	31488	20784
30208	29264	19376
30720	29504	19024
31232	29024	19296
31744	28560	18800
32256	28704	19216
32768	52288	33328
33792	50928	33440
34816	47824	30352
35840	44912	28704
36864	41296	26864
37888	40352	26208
38912	36960	23856
39936	36224	23376
40960	34064	21456
41984	32864	20160
43008	31632	19600
44032	29872	18432
45056	30544	18912
46080	26752	16640
47104	26960	17632
48128	26304	16784
49152	24400	15136
50176	23776	14352
51200	22080	13568
52224	21872	13264
53248	21552	12928
54272	20192	11888
55296	20192	12256
56320	19168	11632
57344	18128	11504
58368	18192	10784
59392	17648	10928
60416	17120	10032
61440	16288	10144
62464	15136	8816
63488	15440	8992
64512	14848	9056
65536	27904	16672
67584	26992	16800
69632	25904	15488
71680	25680	14736
73728	23808	13632
75776	21152	12400
77824	19744	11392
79872	20144	11648
81920	19520	11648
83968	18352	10512
86016	18032	10016
88064	16976	9536
90112	15936	9120
92160	15792	8880
94208	15296	8496
96256	14928	8448
98304	12704	7312
100352	13568	7632
102400	12496	6928
104448	12496	7072
106496	11632	6576
108544	12064	6480
110592	10320	5680
112640	10832	5568
114688	10096	5488
116736	9968	5264
118784	9360	5008
120832	9440	5184
122880	9232	4752
124928	8688	4608
126976	8640	4736
129024	8400	4464
131072	15440	8240
135168	15296	8064
139264	14208	7504
143360	12896	7136
147456	12912	6752
151552	11184	6160
155648	10752	5888
159744	11504	5664
163840	10464	5616
167936	9376	4928
172032	9216	4944
176128	9584	5120
180224	9248	4528
184320	7984	4400
188416	7920	4192
192512	7328	3776
196608	7632	3872
200704	7392	3728
204800	6832	3408
208896	6736	3312
212992	6560	3456
217088	6336	3136
221184	6096	3184
225280	5568	2880
229376	6032	3056
233472	5088	2352
237568	5216	2448
241664	5328	2672
245760	4624	2496
249856	4368	2592
253952	4800	2416
258048	4640	2432
262144	8624	4048
270336	7824	3904
278528	7136	3792
286720	7520	3664
294912	7648	3984
303104	6672	3488
311296	6192	3264
319488	6288	3376
327680	5504	2832
335872	5456	2608
344064	5024	2640
352256	5120	2432
360448	4288	1984
368640	4848	2048
376832	4208	2080
385024	4112	1936
393216	4608	2192
401408	3808	1920
409600	3776	2048
417792	4448	2016
425984	3632	1888
434176	3840	1824
442368	3424	1792
450560	3280	1808
458752	3200	1648
466944	3408	1664
475136	3216	1536
483328	3008	1568
491520	3264	1648
499712	2656	1376
507904	3120	1616
516096	2544	1088
524288	4768	2400
540672	4784	2272
557056	4928	2320
573440	4256	2544
589824	3984	1984
606208	4016	2096
622592	3744	2032
638976	3536	1808
655360	3120	1504
671744	3408	1872
688128	3312	1696
704512	2336	1200
720896	3088	1504
737280	2560	1456
753664	2528	1456
770048	2720	1168
786432	2368	1328
802816	2320	1200
819200	2368	1232
835584	2144	1280
851968	2400	1056
868352	2032	928
884736	2064	976
901120	1840	960
917504	1904	1120
933888	2016	1168
950272	2048	1104
966656	1440	688
983040	1824	848
999424	1536	832
1015808	1680	832
1032192	1312	608
1048576	2768	1456
1081344	2800	1712
1114112	2864	1104
1146880	2160	1136
1179648	2432	1312
1212416	1664	1040
1245184	2240	1184
1277952	2256	1120
1310720	2144	1312
1343488	1888	1056
1376256	1712	976
1409024	2144	1328
1441792	1696	848
1474560	1424	704
1507328	1216	688
1540096	1792	912
1572864	1328	592
1605632	1360	816
1638400	1584	848
1671168	1296	752
1703936	1312	640
1736704	1136	544
1769472	1056	672
1802240	960	528
1835008	1008	464
1867776	1408	704
1900544	1168	448
1933312	1136	672
1966080	1280	544
1998848	1232	688
2031616	992	416
2064384	976	592
2097152	1904	928
2162688	1968	1040
2228224	1664	880
2293760	1712	1024
2359296	1536	960
2424832	1520	816
2490368	1120	656
2555904	1296	704
2621440	1424	752
2686976	1104	656
2752512	1424	864
2818048	1104	688
2883584	1184	752
2949120	1200	672
3014656	1232	704
3080192	1136	672
3145728	992	560
3211264	768	560
3276800	976	592
3342336	816	464
3407872	912	512
3473408	864	608
3538944	960	592
3604480	688	304
3670016	704	320
3735552	496	256
3801088	896	608
3866624	544	240
3932160	576	288
3997696	752	368
4063232	464	288
4128768	640	208
4194304	1056	464
4325376	816	544
4456448	880	576
4587520	896	576
4718592	1104	688
4849664	688	432
4980736	560	368
5111808	976	592
5242880	624	464
5373952	1136	736
5505024	640	352
5636096	576	336
5767168	656	496
5898240	592	384
6029312	480	336
6160384	384	256
6291456	736	464
6422528	512	352
6553600	560	384
6684672	528	352
6815744	912	560
6946816	512	288
7077888	784	368
7208960	672	528
7340032	352	256
7471104	464	384
7602176	528	320
7733248	288	160
7864320	288	160
7995392	464	368
8126464	528	352
8257536	416	304
8388608	848	544
8650752	864	416
8912896	608	432
9175040	640	512
9437184	496	288
9699328	576	400
9961472	528	400
10223616	976	720
10485760	848	544
10747904	1264	1024
11010048	672	544
11272192	1104	944
11534336	768	656
11796480	880	688
12058624	624	496
12320768	736	528
12582912	432	304
12845056	400	368
13107200	384	224
13369344	400	240
13631488	416	304
13893632	448	320
14155776	400	256
14417920	368	320
14680064	272	224
14942208	224	160
15204352	400	192
15466496	272	160
15728640	352	288
15990784	144	96
16252928	304	160
16515072	192	176
16777216	544	480
17301504	544	448
17825792	544	432
18350080	560	544
18874368	688	592
19398656	512	432
19922944	416	352
20447232	608	496
20971520	608	480
21495808	560	464
22020096	592	496
22544384	544	512
23068672	176	176
23592960	368	208
24117248	224	160
24641536	352	288
25165824	288	176
25690112	384	336
26214400	240	224
26738688	240	208
27262976	224	208
27787264	256	144
28311552	256	144
28835840	144	128
29360128	224	128
29884416	144	128
30408704	144	112
30932992	112	80
31457280	64	32
31981568	160	128
32505856	176	144
33030144	96	80
33554432	336	224
34603008	576	336
35651584	592	464
36700160	288	272
37748736	144	128
38797312	288	224
39845888	176	160
40894464	528	352
41943040	288	272
42991616	112	80
44040192	176	176
45088768	240	224
46137344	176	160
47185920	144	112
48234496	112	112
49283072	272	176
50331648	224	224
51380224	416	368
52428800	368	304
53477376	192	176
54525952	160	160
55574528	192	192
56623104	224	224
57671680	400	400
58720256	224	192
59768832	368	368
60817408	224	208
61865984	176	160
62914560	368	368
63963136	160	144
65011712	288	240
66060288	432	432
67108864	832	784
69206016	304	240
71303168	432	432
73400320	320	320
75497472	560	528
77594624	1424	1408
79691776	912	880
81788928	640	640
83886080	944	944
85983232	320	288
88080384	336	320
90177536	416	384
92274688	240	224
94371840	32	32
96468992	304	304
98566144	304	304
100663296	416	352
102760448	384	352
104857600	160	144
106954752	368	352
109051904	304	304
111149056	176	144
113246208	384	320
115343360	176	128
117440512	496	416
119537664	432	432
121634816	176	160
123731968	320	320
125829120	368	368
127926272	224	224
130023424	256	256
132120576	224	224
134217728	176	176
138412032	192	176
142606336	144	96
146800640	80	64
150994944	32	16
155189248	208	192
159383552	240	160
163577856	160	144
167772160	208	160
171966464	192	192
176160768	112	64
180355072	96	48
184549376	64	64
188743680	64	48
192937984	32	16
197132288	64	48
201326592	32	16
205520896	48	48
209715200	16	0
213909504	48	48
218103808	32	32
222298112	48	32
226492416	0	0
230686720	16	16
234881024	16	16
239075328	0	0
243269632	32	32
247463936	64	48
251658240	32	16
255852544	0	0
260046848	16	16
264241152	16	16
268435456	48	48
276824064	32	32
285212672	48	32
293601280	32	32
301989888	48	48
310378496	48	32
318767104	0	0
327155712	0	0
335544320	48	48
343932928	16	16
352321536	32	32
360710144	0	0
369098752	32	16
377487360	48	48
385875968	16	16
394264576	32	32
402653184	16	16
411041792	16	16
419430400	16	16
427819008	48	32
436207616	32	32
444596224	0	0
452984832	0	0
461373440	0	0
469762048	0	0
478150656	0	0
486539264	32	32
494927872	0	0
503316480	16	16
511705088	0	0
520093696	0	0
528482304	0	0
536870912	0	0
553648128	0	0
570425344	0	0
587202560	0	0
603979776	0	0
620756992	0	0
637534208	0	0
654311424	0	0
671088640	0	0
687865856	0	0
704643072	0	0
721420288	0	0
738197504	0	0
754974720	0	0
771751936	0	0
788529152	0	0
805306368	0	0
822083584	0	0
838860800	0	0
855638016	0	0
872415232	0	0
889192448	0	0
905969664	0	0
922746880	0	0
939524096	0	0
956301312	0	0
973078528	0	0
989855744	0	0
1006632960	0	0
1023410176	0	0
1040187392	0	0
1056964608	0	0
1073741824	0	0
1107296256	0	0
1140850688	0	0
1174405120	0	0
1207959552	0	0
1241513984	0	0
1275068416	0	0
1308622848	0	0
1342177280	0	0
1375731712	0	0
1409286144	0	0
1442840576	0	0
1476395008	0	0
1509949440	0	0
1543503872	0	0
1577058304	0	0
1610612736	0	0
1644167168	0	0
1677721600	0	0
1711276032	0	0
1744830464	0	0
1778384896	0	0
1811939328	0	0
1845493760	0	0
1879048192	0	0
1912602624	0	0
1946157056	0	0
1979711488	0	0
2013265920	0	0
2046820352	0	0
2080374784	0	0
2113929216	0	0
2147483648	0	0
2214592512	0	0
2281701376	0	0
2348810240	0	0
2415919104	0	0
2483027968	0	0
2550136832	0	0
2617245696	0	0
2684354560	0	0
2751463424	0	0
2818572288	0	0
2885681152	0	0
2952790016	0	0
3019898880	0	0
3087007744	0	0
3154116608	0	0
3221225472	0	0
3288334336	0	0
3355443200	0	0
3422552064	0	0
3489660928	0	0
3556769792	0	0
3623878656	0	0
3690987520	0	0
3758096384	0	0
3825205248	0	0
3892314112	0	0
3959422976	0	0
4026531840	0	0
4093640704	0	0
4160749568	0	0
4227858432	0	0
~~~~~~~~~~Reuse Distance Profiler output end~~~~~~~~~~

DRAM Statistics
 CHANNEL 0
 RQ ROW_BUFFER_HIT:        150  ROW_BUFFER_MISS:     391136
 DBUS AVG_CONGESTED_CYCLE:     3.8452
 WQ ROW_BUFFER_HIT:       4790  ROW_BUFFER_MISS:     271408  FULL:          0


CPU 0 Branch Prediction Accuracy: 90.4425% MPKI: 14.123 Average ROB Occupancy at Mispredict: 33.4069
Branch type MPKI
BRANCH_DIRECT_JUMP: 1.4e-05
BRANCH_INDIRECT: 0.002562
BRANCH_CONDITIONAL: 14.1204
BRANCH_DIRECT_CALL: 2e-06
BRANCH_INDIRECT_CALL: 0
BRANCH_RETURN: 3.33333e-06

