
*** ChampSim Multicore Out-of-Order Simulator ***

Warmup Instructions: 500000000
Simulation Instructions: 1500000000
Number of CPUs: 1
Off-chip DRAM Size: 4 GiB Channels: 1 Width: 64-bit Data Rate: 3200 MT/s

VirtualMemory physical capacity: 8588881920 num_ppages: 2096895
VirtualMemory page size: 4096 log2_page_size: 12

CPU 0 runs traces/638.imagick_s-10316B.champsimtrace.xz
CPU 0 Bimodal branch predictor
Basic BTB sets: 1024 ways: 8 indirect buffer size: 4096 RAS size: 64
Initializing LRU.
Initializing LRU.
Initializing LRU.
Initializing LRU.
Initializing rdLRU.
Initializing LRU.
Initializing LRU.
Heartbeat CPU 0 instructions: 10000002 cycles: 2500064 heartbeat IPC: 3.9999 cumulative IPC: 3.9999 (Simulation time: 0 hr 0 min 33 sec) 
Heartbeat CPU 0 instructions: 20000002 cycles: 5000064 heartbeat IPC: 4 cumulative IPC: 3.99995 (Simulation time: 0 hr 1 min 11 sec) 
Heartbeat CPU 0 instructions: 30000002 cycles: 7500064 heartbeat IPC: 4 cumulative IPC: 3.99997 (Simulation time: 0 hr 1 min 55 sec) 
Heartbeat CPU 0 instructions: 40000002 cycles: 10000064 heartbeat IPC: 4 cumulative IPC: 3.99997 (Simulation time: 0 hr 2 min 32 sec) 
Heartbeat CPU 0 instructions: 50000002 cycles: 12500064 heartbeat IPC: 4 cumulative IPC: 3.99998 (Simulation time: 0 hr 3 min 2 sec) 
Heartbeat CPU 0 instructions: 60000002 cycles: 15000064 heartbeat IPC: 4 cumulative IPC: 3.99998 (Simulation time: 0 hr 3 min 43 sec) 
Heartbeat CPU 0 instructions: 70000002 cycles: 17500064 heartbeat IPC: 4 cumulative IPC: 3.99999 (Simulation time: 0 hr 4 min 24 sec) 
Heartbeat CPU 0 instructions: 80000002 cycles: 20000064 heartbeat IPC: 4 cumulative IPC: 3.99999 (Simulation time: 0 hr 5 min 6 sec) 
Heartbeat CPU 0 instructions: 90000002 cycles: 22500064 heartbeat IPC: 4 cumulative IPC: 3.99999 (Simulation time: 0 hr 5 min 43 sec) 
Heartbeat CPU 0 instructions: 100000002 cycles: 25000064 heartbeat IPC: 4 cumulative IPC: 3.99999 (Simulation time: 0 hr 6 min 17 sec) 
Heartbeat CPU 0 instructions: 110000002 cycles: 27500064 heartbeat IPC: 4 cumulative IPC: 3.99999 (Simulation time: 0 hr 6 min 54 sec) 
Heartbeat CPU 0 instructions: 120000002 cycles: 30000064 heartbeat IPC: 4 cumulative IPC: 3.99999 (Simulation time: 0 hr 7 min 37 sec) 
Heartbeat CPU 0 instructions: 130000002 cycles: 32500064 heartbeat IPC: 4 cumulative IPC: 3.99999 (Simulation time: 0 hr 8 min 24 sec) 
Heartbeat CPU 0 instructions: 140000002 cycles: 35000064 heartbeat IPC: 4 cumulative IPC: 3.99999 (Simulation time: 0 hr 9 min 11 sec) 
Heartbeat CPU 0 instructions: 150000002 cycles: 37500064 heartbeat IPC: 4 cumulative IPC: 3.99999 (Simulation time: 0 hr 9 min 53 sec) 
Heartbeat CPU 0 instructions: 160000002 cycles: 40000064 heartbeat IPC: 4 cumulative IPC: 3.99999 (Simulation time: 0 hr 10 min 36 sec) 
Heartbeat CPU 0 instructions: 170000002 cycles: 42500064 heartbeat IPC: 4 cumulative IPC: 3.99999 (Simulation time: 0 hr 11 min 22 sec) 
Heartbeat CPU 0 instructions: 180000002 cycles: 45000064 heartbeat IPC: 4 cumulative IPC: 3.99999 (Simulation time: 0 hr 12 min 0 sec) 
Heartbeat CPU 0 instructions: 190000002 cycles: 47500064 heartbeat IPC: 4 cumulative IPC: 3.99999 (Simulation time: 0 hr 12 min 38 sec) 
Heartbeat CPU 0 instructions: 200000002 cycles: 50000064 heartbeat IPC: 4 cumulative IPC: 3.99999 (Simulation time: 0 hr 13 min 20 sec) 
Heartbeat CPU 0 instructions: 210000002 cycles: 52500064 heartbeat IPC: 4 cumulative IPC: 4 (Simulation time: 0 hr 13 min 54 sec) 
Heartbeat CPU 0 instructions: 220000002 cycles: 55000064 heartbeat IPC: 4 cumulative IPC: 4 (Simulation time: 0 hr 14 min 32 sec) 
Heartbeat CPU 0 instructions: 230000002 cycles: 57500064 heartbeat IPC: 4 cumulative IPC: 4 (Simulation time: 0 hr 15 min 1 sec) 
Heartbeat CPU 0 instructions: 240000002 cycles: 60000064 heartbeat IPC: 4 cumulative IPC: 4 (Simulation time: 0 hr 15 min 35 sec) 
Heartbeat CPU 0 instructions: 250000002 cycles: 62500064 heartbeat IPC: 4 cumulative IPC: 4 (Simulation time: 0 hr 16 min 24 sec) 
Heartbeat CPU 0 instructions: 260000002 cycles: 65000064 heartbeat IPC: 4 cumulative IPC: 4 (Simulation time: 0 hr 17 min 0 sec) 
Heartbeat CPU 0 instructions: 270000002 cycles: 67500064 heartbeat IPC: 4 cumulative IPC: 4 (Simulation time: 0 hr 17 min 46 sec) 
Heartbeat CPU 0 instructions: 280000002 cycles: 70000064 heartbeat IPC: 4 cumulative IPC: 4 (Simulation time: 0 hr 18 min 22 sec) 
Heartbeat CPU 0 instructions: 290000002 cycles: 72500064 heartbeat IPC: 4 cumulative IPC: 4 (Simulation time: 0 hr 19 min 1 sec) 
Heartbeat CPU 0 instructions: 300000002 cycles: 75000064 heartbeat IPC: 4 cumulative IPC: 4 (Simulation time: 0 hr 19 min 42 sec) 
Heartbeat CPU 0 instructions: 310000002 cycles: 77500064 heartbeat IPC: 4 cumulative IPC: 4 (Simulation time: 0 hr 20 min 27 sec) 
Heartbeat CPU 0 instructions: 320000002 cycles: 80000064 heartbeat IPC: 4 cumulative IPC: 4 (Simulation time: 0 hr 21 min 7 sec) 
Heartbeat CPU 0 instructions: 330000002 cycles: 82500064 heartbeat IPC: 4 cumulative IPC: 4 (Simulation time: 0 hr 21 min 42 sec) 
Heartbeat CPU 0 instructions: 340000002 cycles: 85000064 heartbeat IPC: 4 cumulative IPC: 4 (Simulation time: 0 hr 22 min 23 sec) 
Heartbeat CPU 0 instructions: 350000002 cycles: 87500064 heartbeat IPC: 4 cumulative IPC: 4 (Simulation time: 0 hr 23 min 5 sec) 
Heartbeat CPU 0 instructions: 360000002 cycles: 90000064 heartbeat IPC: 4 cumulative IPC: 4 (Simulation time: 0 hr 23 min 51 sec) 
Heartbeat CPU 0 instructions: 370000002 cycles: 92500064 heartbeat IPC: 4 cumulative IPC: 4 (Simulation time: 0 hr 24 min 36 sec) 
Heartbeat CPU 0 instructions: 380000002 cycles: 95000064 heartbeat IPC: 4 cumulative IPC: 4 (Simulation time: 0 hr 25 min 25 sec) 
Heartbeat CPU 0 instructions: 390000002 cycles: 97500064 heartbeat IPC: 4 cumulative IPC: 4 (Simulation time: 0 hr 26 min 14 sec) 
Heartbeat CPU 0 instructions: 400000002 cycles: 100000064 heartbeat IPC: 4 cumulative IPC: 4 (Simulation time: 0 hr 26 min 57 sec) 
Heartbeat CPU 0 instructions: 410000002 cycles: 102500064 heartbeat IPC: 4 cumulative IPC: 4 (Simulation time: 0 hr 27 min 46 sec) 
Heartbeat CPU 0 instructions: 420000002 cycles: 105000064 heartbeat IPC: 4 cumulative IPC: 4 (Simulation time: 0 hr 28 min 35 sec) 
Heartbeat CPU 0 instructions: 430000002 cycles: 107500064 heartbeat IPC: 4 cumulative IPC: 4 (Simulation time: 0 hr 29 min 24 sec) 
Heartbeat CPU 0 instructions: 440000002 cycles: 110000064 heartbeat IPC: 4 cumulative IPC: 4 (Simulation time: 0 hr 29 min 57 sec) 
Heartbeat CPU 0 instructions: 450000002 cycles: 112500064 heartbeat IPC: 4 cumulative IPC: 4 (Simulation time: 0 hr 30 min 44 sec) 
Heartbeat CPU 0 instructions: 460000002 cycles: 115000064 heartbeat IPC: 4 cumulative IPC: 4 (Simulation time: 0 hr 31 min 28 sec) 
Heartbeat CPU 0 instructions: 470000002 cycles: 117500064 heartbeat IPC: 4 cumulative IPC: 4 (Simulation time: 0 hr 32 min 1 sec) 
Heartbeat CPU 0 instructions: 480000002 cycles: 120000064 heartbeat IPC: 4 cumulative IPC: 4 (Simulation time: 0 hr 32 min 38 sec) 
Heartbeat CPU 0 instructions: 490000002 cycles: 122500064 heartbeat IPC: 4 cumulative IPC: 4 (Simulation time: 0 hr 33 min 8 sec) 
Heartbeat CPU 0 instructions: 500000002 cycles: 125000064 heartbeat IPC: 4 cumulative IPC: 4 (Simulation time: 0 hr 33 min 44 sec) 

Warmup complete CPU 0 instructions: 500000002 cycles: 125000064 (Simulation time: 0 hr 33 min 44 sec) 

Heartbeat CPU 0 instructions: 510000000 cycles: 128437275 heartbeat IPC: 2.90933 cumulative IPC: 2.90933 (Simulation time: 0 hr 34 min 29 sec) 
Heartbeat CPU 0 instructions: 520000000 cycles: 131873330 heartbeat IPC: 2.91031 cumulative IPC: 2.90982 (Simulation time: 0 hr 35 min 18 sec) 
Heartbeat CPU 0 instructions: 530000001 cycles: 135311367 heartbeat IPC: 2.90864 cumulative IPC: 2.90943 (Simulation time: 0 hr 36 min 9 sec) 
Heartbeat CPU 0 instructions: 540000003 cycles: 138748281 heartbeat IPC: 2.90959 cumulative IPC: 2.90947 (Simulation time: 0 hr 37 min 3 sec) 
Heartbeat CPU 0 instructions: 550000002 cycles: 142186233 heartbeat IPC: 2.90871 cumulative IPC: 2.90932 (Simulation time: 0 hr 37 min 57 sec) 
Heartbeat CPU 0 instructions: 560000001 cycles: 145624763 heartbeat IPC: 2.90822 cumulative IPC: 2.90913 (Simulation time: 0 hr 38 min 34 sec) 
Heartbeat CPU 0 instructions: 570000000 cycles: 149063265 heartbeat IPC: 2.90824 cumulative IPC: 2.90901 (Simulation time: 0 hr 39 min 19 sec) 
Heartbeat CPU 0 instructions: 580000000 cycles: 152501311 heartbeat IPC: 2.90863 cumulative IPC: 2.90896 (Simulation time: 0 hr 39 min 59 sec) 
Heartbeat CPU 0 instructions: 590000000 cycles: 155939088 heartbeat IPC: 2.90886 cumulative IPC: 2.90895 (Simulation time: 0 hr 40 min 38 sec) 
Heartbeat CPU 0 instructions: 600000001 cycles: 159377568 heartbeat IPC: 2.90826 cumulative IPC: 2.90888 (Simulation time: 0 hr 41 min 23 sec) 
Heartbeat CPU 0 instructions: 610000001 cycles: 162816599 heartbeat IPC: 2.9078 cumulative IPC: 2.90878 (Simulation time: 0 hr 42 min 13 sec) 
Heartbeat CPU 0 instructions: 620000001 cycles: 166255690 heartbeat IPC: 2.90775 cumulative IPC: 2.90869 (Simulation time: 0 hr 43 min 4 sec) 
Heartbeat CPU 0 instructions: 630000001 cycles: 169695007 heartbeat IPC: 2.90755 cumulative IPC: 2.90861 (Simulation time: 0 hr 43 min 54 sec) 
Heartbeat CPU 0 instructions: 640000000 cycles: 173134507 heartbeat IPC: 2.9074 cumulative IPC: 2.90852 (Simulation time: 0 hr 44 min 44 sec) 
Heartbeat CPU 0 instructions: 650000004 cycles: 176573626 heartbeat IPC: 2.90772 cumulative IPC: 2.90847 (Simulation time: 0 hr 45 min 36 sec) 
Heartbeat CPU 0 instructions: 660000003 cycles: 180013465 heartbeat IPC: 2.90711 cumulative IPC: 2.90838 (Simulation time: 0 hr 46 min 31 sec) 
Heartbeat CPU 0 instructions: 670000004 cycles: 183453326 heartbeat IPC: 2.90709 cumulative IPC: 2.90831 (Simulation time: 0 hr 47 min 19 sec) 
Heartbeat CPU 0 instructions: 680000004 cycles: 186893405 heartbeat IPC: 2.90691 cumulative IPC: 2.90823 (Simulation time: 0 hr 48 min 7 sec) 
Heartbeat CPU 0 instructions: 690000000 cycles: 190331954 heartbeat IPC: 2.9082 cumulative IPC: 2.90823 (Simulation time: 0 hr 48 min 49 sec) 
Heartbeat CPU 0 instructions: 700000004 cycles: 193771651 heartbeat IPC: 2.90723 cumulative IPC: 2.90818 (Simulation time: 0 hr 49 min 34 sec) 
Heartbeat CPU 0 instructions: 710000000 cycles: 197210229 heartbeat IPC: 2.90818 cumulative IPC: 2.90818 (Simulation time: 0 hr 50 min 21 sec) 
Heartbeat CPU 0 instructions: 720000000 cycles: 200648273 heartbeat IPC: 2.90863 cumulative IPC: 2.9082 (Simulation time: 0 hr 51 min 1 sec) 
Heartbeat CPU 0 instructions: 730000001 cycles: 204085538 heartbeat IPC: 2.90929 cumulative IPC: 2.90825 (Simulation time: 0 hr 51 min 53 sec) 
Heartbeat CPU 0 instructions: 740000000 cycles: 207524200 heartbeat IPC: 2.90811 cumulative IPC: 2.90824 (Simulation time: 0 hr 52 min 46 sec) 
Heartbeat CPU 0 instructions: 750000004 cycles: 210961187 heartbeat IPC: 2.90953 cumulative IPC: 2.90829 (Simulation time: 0 hr 53 min 35 sec) 
Heartbeat CPU 0 instructions: 760000004 cycles: 214399870 heartbeat IPC: 2.90809 cumulative IPC: 2.90828 (Simulation time: 0 hr 54 min 20 sec) 
Heartbeat CPU 0 instructions: 770000003 cycles: 217837783 heartbeat IPC: 2.90874 cumulative IPC: 2.9083 (Simulation time: 0 hr 55 min 5 sec) 
Heartbeat CPU 0 instructions: 780000002 cycles: 221276397 heartbeat IPC: 2.90815 cumulative IPC: 2.9083 (Simulation time: 0 hr 55 min 43 sec) 
Heartbeat CPU 0 instructions: 790000003 cycles: 224713466 heartbeat IPC: 2.90946 cumulative IPC: 2.90834 (Simulation time: 0 hr 56 min 24 sec) 
Heartbeat CPU 0 instructions: 800000001 cycles: 228150761 heartbeat IPC: 2.90926 cumulative IPC: 2.90837 (Simulation time: 0 hr 57 min 6 sec) 
Heartbeat CPU 0 instructions: 810000004 cycles: 231586764 heartbeat IPC: 2.91036 cumulative IPC: 2.90843 (Simulation time: 0 hr 57 min 46 sec) 
Heartbeat CPU 0 instructions: 820000003 cycles: 235023978 heartbeat IPC: 2.90933 cumulative IPC: 2.90846 (Simulation time: 0 hr 58 min 39 sec) 
Heartbeat CPU 0 instructions: 830000000 cycles: 238459556 heartbeat IPC: 2.91072 cumulative IPC: 2.90853 (Simulation time: 0 hr 59 min 30 sec) 
Heartbeat CPU 0 instructions: 840000003 cycles: 241897193 heartbeat IPC: 2.90898 cumulative IPC: 2.90854 (Simulation time: 1 hr 0 min 12 sec) 
Heartbeat CPU 0 instructions: 850000004 cycles: 245332974 heartbeat IPC: 2.91055 cumulative IPC: 2.9086 (Simulation time: 1 hr 0 min 59 sec) 
Heartbeat CPU 0 instructions: 860000003 cycles: 248770277 heartbeat IPC: 2.90926 cumulative IPC: 2.90862 (Simulation time: 1 hr 1 min 52 sec) 
Heartbeat CPU 0 instructions: 870000003 cycles: 252206257 heartbeat IPC: 2.91038 cumulative IPC: 2.90866 (Simulation time: 1 hr 2 min 47 sec) 
Heartbeat CPU 0 instructions: 880000003 cycles: 255643823 heartbeat IPC: 2.90903 cumulative IPC: 2.90867 (Simulation time: 1 hr 3 min 41 sec) 
Heartbeat CPU 0 instructions: 890000002 cycles: 259079706 heartbeat IPC: 2.91046 cumulative IPC: 2.90872 (Simulation time: 1 hr 4 min 35 sec) 
Heartbeat CPU 0 instructions: 900000004 cycles: 262516940 heartbeat IPC: 2.90932 cumulative IPC: 2.90873 (Simulation time: 1 hr 5 min 25 sec) 
Heartbeat CPU 0 instructions: 910000002 cycles: 265953340 heartbeat IPC: 2.91002 cumulative IPC: 2.90877 (Simulation time: 1 hr 6 min 8 sec) 
Heartbeat CPU 0 instructions: 920000004 cycles: 269390452 heartbeat IPC: 2.90942 cumulative IPC: 2.90878 (Simulation time: 1 hr 6 min 58 sec) 
Heartbeat CPU 0 instructions: 930000000 cycles: 272826189 heartbeat IPC: 2.91058 cumulative IPC: 2.90882 (Simulation time: 1 hr 7 min 48 sec) 
Heartbeat CPU 0 instructions: 940000004 cycles: 276262874 heartbeat IPC: 2.90978 cumulative IPC: 2.90884 (Simulation time: 1 hr 8 min 38 sec) 
Heartbeat CPU 0 instructions: 950000004 cycles: 279699144 heartbeat IPC: 2.91013 cumulative IPC: 2.90887 (Simulation time: 1 hr 9 min 27 sec) 
Heartbeat CPU 0 instructions: 960000001 cycles: 283135724 heartbeat IPC: 2.90987 cumulative IPC: 2.90889 (Simulation time: 1 hr 10 min 17 sec) 
Heartbeat CPU 0 instructions: 970000000 cycles: 286571586 heartbeat IPC: 2.91048 cumulative IPC: 2.90893 (Simulation time: 1 hr 11 min 6 sec) 
Heartbeat CPU 0 instructions: 980000004 cycles: 290008195 heartbeat IPC: 2.90985 cumulative IPC: 2.90895 (Simulation time: 1 hr 11 min 48 sec) 
Heartbeat CPU 0 instructions: 990000002 cycles: 293443792 heartbeat IPC: 2.9107 cumulative IPC: 2.90898 (Simulation time: 1 hr 12 min 36 sec) 
Heartbeat CPU 0 instructions: 1000000001 cycles: 296879681 heartbeat IPC: 2.91045 cumulative IPC: 2.90901 (Simulation time: 1 hr 13 min 18 sec) 
Heartbeat CPU 0 instructions: 1010000002 cycles: 300316543 heartbeat IPC: 2.90963 cumulative IPC: 2.90902 (Simulation time: 1 hr 14 min 12 sec) 
Heartbeat CPU 0 instructions: 1020000000 cycles: 303752926 heartbeat IPC: 2.91004 cumulative IPC: 2.90904 (Simulation time: 1 hr 15 min 6 sec) 
Heartbeat CPU 0 instructions: 1030000001 cycles: 307189278 heartbeat IPC: 2.91006 cumulative IPC: 2.90906 (Simulation time: 1 hr 16 min 1 sec) 
Heartbeat CPU 0 instructions: 1040000001 cycles: 310625820 heartbeat IPC: 2.9099 cumulative IPC: 2.90908 (Simulation time: 1 hr 16 min 49 sec) 
Heartbeat CPU 0 instructions: 1050000002 cycles: 314063123 heartbeat IPC: 2.90926 cumulative IPC: 2.90908 (Simulation time: 1 hr 17 min 40 sec) 
Heartbeat CPU 0 instructions: 1060000004 cycles: 317500001 heartbeat IPC: 2.90962 cumulative IPC: 2.90909 (Simulation time: 1 hr 18 min 35 sec) 
Heartbeat CPU 0 instructions: 1070000004 cycles: 320936743 heartbeat IPC: 2.90973 cumulative IPC: 2.9091 (Simulation time: 1 hr 19 min 18 sec) 
Heartbeat CPU 0 instructions: 1080000004 cycles: 324372801 heartbeat IPC: 2.91031 cumulative IPC: 2.90912 (Simulation time: 1 hr 20 min 8 sec) 
Heartbeat CPU 0 instructions: 1090000002 cycles: 327809440 heartbeat IPC: 2.90982 cumulative IPC: 2.90914 (Simulation time: 1 hr 21 min 0 sec) 
Heartbeat CPU 0 instructions: 1100000001 cycles: 331245337 heartbeat IPC: 2.91045 cumulative IPC: 2.90916 (Simulation time: 1 hr 21 min 52 sec) 
Heartbeat CPU 0 instructions: 1110000003 cycles: 334682975 heartbeat IPC: 2.90897 cumulative IPC: 2.90915 (Simulation time: 1 hr 22 min 44 sec) 
Heartbeat CPU 0 instructions: 1120000000 cycles: 338118912 heartbeat IPC: 2.91041 cumulative IPC: 2.90917 (Simulation time: 1 hr 23 min 26 sec) 
Heartbeat CPU 0 instructions: 1130000004 cycles: 341556901 heartbeat IPC: 2.90868 cumulative IPC: 2.90917 (Simulation time: 1 hr 23 min 56 sec) 
Heartbeat CPU 0 instructions: 1140000001 cycles: 344993303 heartbeat IPC: 2.91002 cumulative IPC: 2.90918 (Simulation time: 1 hr 24 min 40 sec) 
Heartbeat CPU 0 instructions: 1150000003 cycles: 348431140 heartbeat IPC: 2.90881 cumulative IPC: 2.90917 (Simulation time: 1 hr 25 min 34 sec) 
Heartbeat CPU 0 instructions: 1160000001 cycles: 351867204 heartbeat IPC: 2.91031 cumulative IPC: 2.90919 (Simulation time: 1 hr 26 min 19 sec) 
Heartbeat CPU 0 instructions: 1170000004 cycles: 355304329 heartbeat IPC: 2.90941 cumulative IPC: 2.90919 (Simulation time: 1 hr 27 min 0 sec) 
Heartbeat CPU 0 instructions: 1180000004 cycles: 358741650 heartbeat IPC: 2.90924 cumulative IPC: 2.9092 (Simulation time: 1 hr 27 min 54 sec) 
Heartbeat CPU 0 instructions: 1190000004 cycles: 362180134 heartbeat IPC: 2.90826 cumulative IPC: 2.90918 (Simulation time: 1 hr 28 min 45 sec) 
Heartbeat CPU 0 instructions: 1200000001 cycles: 365616128 heartbeat IPC: 2.91037 cumulative IPC: 2.9092 (Simulation time: 1 hr 29 min 39 sec) 
Heartbeat CPU 0 instructions: 1210000002 cycles: 369053347 heartbeat IPC: 2.90933 cumulative IPC: 2.9092 (Simulation time: 1 hr 30 min 29 sec) 
Heartbeat CPU 0 instructions: 1220000003 cycles: 372489354 heartbeat IPC: 2.91036 cumulative IPC: 2.90922 (Simulation time: 1 hr 31 min 16 sec) 
Heartbeat CPU 0 instructions: 1230000000 cycles: 375926466 heartbeat IPC: 2.90942 cumulative IPC: 2.90922 (Simulation time: 1 hr 32 min 0 sec) 
Heartbeat CPU 0 instructions: 1240000003 cycles: 379362119 heartbeat IPC: 2.91066 cumulative IPC: 2.90924 (Simulation time: 1 hr 32 min 46 sec) 
Heartbeat CPU 0 instructions: 1250000003 cycles: 382800010 heartbeat IPC: 2.90876 cumulative IPC: 2.90923 (Simulation time: 1 hr 33 min 20 sec) 
Heartbeat CPU 0 instructions: 1260000001 cycles: 386236041 heartbeat IPC: 2.91033 cumulative IPC: 2.90925 (Simulation time: 1 hr 33 min 58 sec) 
Heartbeat CPU 0 instructions: 1270000001 cycles: 389672737 heartbeat IPC: 2.90977 cumulative IPC: 2.90925 (Simulation time: 1 hr 34 min 35 sec) 
Heartbeat CPU 0 instructions: 1280000001 cycles: 393108342 heartbeat IPC: 2.9107 cumulative IPC: 2.90927 (Simulation time: 1 hr 35 min 21 sec) 
Heartbeat CPU 0 instructions: 1290000000 cycles: 396545828 heartbeat IPC: 2.9091 cumulative IPC: 2.90927 (Simulation time: 1 hr 36 min 10 sec) 
Heartbeat CPU 0 instructions: 1300000000 cycles: 399981574 heartbeat IPC: 2.91058 cumulative IPC: 2.90929 (Simulation time: 1 hr 36 min 54 sec) 
Heartbeat CPU 0 instructions: 1310000003 cycles: 403418418 heartbeat IPC: 2.90965 cumulative IPC: 2.90929 (Simulation time: 1 hr 37 min 26 sec) 
Heartbeat CPU 0 instructions: 1320000004 cycles: 406854587 heartbeat IPC: 2.91022 cumulative IPC: 2.9093 (Simulation time: 1 hr 38 min 15 sec) 
Heartbeat CPU 0 instructions: 1330000001 cycles: 410291439 heartbeat IPC: 2.90964 cumulative IPC: 2.90931 (Simulation time: 1 hr 39 min 1 sec) 
Heartbeat CPU 0 instructions: 1340000004 cycles: 413726823 heartbeat IPC: 2.91088 cumulative IPC: 2.90933 (Simulation time: 1 hr 39 min 56 sec) 
Heartbeat CPU 0 instructions: 1350000002 cycles: 417163550 heartbeat IPC: 2.90974 cumulative IPC: 2.90933 (Simulation time: 1 hr 40 min 51 sec) 
Heartbeat CPU 0 instructions: 1360000002 cycles: 420599648 heartbeat IPC: 2.91028 cumulative IPC: 2.90934 (Simulation time: 1 hr 41 min 33 sec) 
Heartbeat CPU 0 instructions: 1370000000 cycles: 424036377 heartbeat IPC: 2.90974 cumulative IPC: 2.90935 (Simulation time: 1 hr 42 min 12 sec) 
Heartbeat CPU 0 instructions: 1380000000 cycles: 427472525 heartbeat IPC: 2.91024 cumulative IPC: 2.90936 (Simulation time: 1 hr 43 min 4 sec) 
Heartbeat CPU 0 instructions: 1390000004 cycles: 430909111 heartbeat IPC: 2.90987 cumulative IPC: 2.90936 (Simulation time: 1 hr 43 min 42 sec) 
Heartbeat CPU 0 instructions: 1400000001 cycles: 434345375 heartbeat IPC: 2.91014 cumulative IPC: 2.90937 (Simulation time: 1 hr 44 min 22 sec) 
Heartbeat CPU 0 instructions: 1410000003 cycles: 437781528 heartbeat IPC: 2.91023 cumulative IPC: 2.90938 (Simulation time: 1 hr 45 min 13 sec) 
Heartbeat CPU 0 instructions: 1420000002 cycles: 441218144 heartbeat IPC: 2.90984 cumulative IPC: 2.90938 (Simulation time: 1 hr 46 min 5 sec) 
Heartbeat CPU 0 instructions: 1430000001 cycles: 444654818 heartbeat IPC: 2.90979 cumulative IPC: 2.90939 (Simulation time: 1 hr 46 min 58 sec) 
Heartbeat CPU 0 instructions: 1440000000 cycles: 448091051 heartbeat IPC: 2.91016 cumulative IPC: 2.9094 (Simulation time: 1 hr 47 min 53 sec) 
Heartbeat CPU 0 instructions: 1450000004 cycles: 451527113 heartbeat IPC: 2.91031 cumulative IPC: 2.90941 (Simulation time: 1 hr 48 min 30 sec) 
Heartbeat CPU 0 instructions: 1460000003 cycles: 454963621 heartbeat IPC: 2.90993 cumulative IPC: 2.90941 (Simulation time: 1 hr 49 min 9 sec) 
Heartbeat CPU 0 instructions: 1470000003 cycles: 458399211 heartbeat IPC: 2.91071 cumulative IPC: 2.90943 (Simulation time: 1 hr 49 min 47 sec) 
Heartbeat CPU 0 instructions: 1480000003 cycles: 461836600 heartbeat IPC: 2.90918 cumulative IPC: 2.90942 (Simulation time: 1 hr 50 min 41 sec) 
Heartbeat CPU 0 instructions: 1490000003 cycles: 465272502 heartbeat IPC: 2.91044 cumulative IPC: 2.90943 (Simulation time: 1 hr 51 min 35 sec) 
Heartbeat CPU 0 instructions: 1500000004 cycles: 468710073 heartbeat IPC: 2.90903 cumulative IPC: 2.90943 (Simulation time: 1 hr 52 min 18 sec) 
Heartbeat CPU 0 instructions: 1510000001 cycles: 472145841 heartbeat IPC: 2.91056 cumulative IPC: 2.90944 (Simulation time: 1 hr 53 min 5 sec) 
Heartbeat CPU 0 instructions: 1520000002 cycles: 475583310 heartbeat IPC: 2.90912 cumulative IPC: 2.90944 (Simulation time: 1 hr 53 min 56 sec) 
Heartbeat CPU 0 instructions: 1530000002 cycles: 479019097 heartbeat IPC: 2.91054 cumulative IPC: 2.90945 (Simulation time: 1 hr 54 min 48 sec) 
Heartbeat CPU 0 instructions: 1540000002 cycles: 482456296 heartbeat IPC: 2.90935 cumulative IPC: 2.90945 (Simulation time: 1 hr 55 min 34 sec) 
Heartbeat CPU 0 instructions: 1550000004 cycles: 485892109 heartbeat IPC: 2.91052 cumulative IPC: 2.90946 (Simulation time: 1 hr 56 min 28 sec) 
Heartbeat CPU 0 instructions: 1560000000 cycles: 489329427 heartbeat IPC: 2.90924 cumulative IPC: 2.90946 (Simulation time: 1 hr 57 min 11 sec) 
Heartbeat CPU 0 instructions: 1570000002 cycles: 492765043 heartbeat IPC: 2.91069 cumulative IPC: 2.90947 (Simulation time: 1 hr 58 min 5 sec) 
Heartbeat CPU 0 instructions: 1580000002 cycles: 496202238 heartbeat IPC: 2.90935 cumulative IPC: 2.90947 (Simulation time: 1 hr 58 min 59 sec) 
Heartbeat CPU 0 instructions: 1590000002 cycles: 499638911 heartbeat IPC: 2.90979 cumulative IPC: 2.90947 (Simulation time: 1 hr 59 min 54 sec) 
Heartbeat CPU 0 instructions: 1600000004 cycles: 503076515 heartbeat IPC: 2.909 cumulative IPC: 2.90946 (Simulation time: 2 hr 0 min 48 sec) 
Heartbeat CPU 0 instructions: 1610000000 cycles: 506512319 heartbeat IPC: 2.91053 cumulative IPC: 2.90947 (Simulation time: 2 hr 1 min 42 sec) 
Heartbeat CPU 0 instructions: 1620000003 cycles: 509949262 heartbeat IPC: 2.90956 cumulative IPC: 2.90947 (Simulation time: 2 hr 2 min 37 sec) 
Heartbeat CPU 0 instructions: 1630000004 cycles: 513385018 heartbeat IPC: 2.91057 cumulative IPC: 2.90948 (Simulation time: 2 hr 3 min 31 sec) 
Heartbeat CPU 0 instructions: 1640000001 cycles: 516822035 heartbeat IPC: 2.9095 cumulative IPC: 2.90948 (Simulation time: 2 hr 4 min 26 sec) 
Heartbeat CPU 0 instructions: 1650000000 cycles: 520257804 heartbeat IPC: 2.91056 cumulative IPC: 2.90949 (Simulation time: 2 hr 5 min 20 sec) 
Heartbeat CPU 0 instructions: 1660000003 cycles: 523695329 heartbeat IPC: 2.90907 cumulative IPC: 2.90949 (Simulation time: 2 hr 6 min 15 sec) 
Heartbeat CPU 0 instructions: 1670000004 cycles: 527131520 heartbeat IPC: 2.9102 cumulative IPC: 2.9095 (Simulation time: 2 hr 7 min 9 sec) 
Heartbeat CPU 0 instructions: 1680000004 cycles: 530568706 heartbeat IPC: 2.90936 cumulative IPC: 2.9095 (Simulation time: 2 hr 8 min 4 sec) 
Heartbeat CPU 0 instructions: 1690000004 cycles: 534004832 heartbeat IPC: 2.91025 cumulative IPC: 2.9095 (Simulation time: 2 hr 8 min 55 sec) 
Heartbeat CPU 0 instructions: 1700000003 cycles: 537442474 heartbeat IPC: 2.90897 cumulative IPC: 2.9095 (Simulation time: 2 hr 9 min 50 sec) 
Heartbeat CPU 0 instructions: 1710000000 cycles: 540878315 heartbeat IPC: 2.91049 cumulative IPC: 2.90951 (Simulation time: 2 hr 10 min 45 sec) 
Heartbeat CPU 0 instructions: 1720000004 cycles: 544315293 heartbeat IPC: 2.90953 cumulative IPC: 2.90951 (Simulation time: 2 hr 11 min 39 sec) 
Heartbeat CPU 0 instructions: 1730000001 cycles: 547751392 heartbeat IPC: 2.91028 cumulative IPC: 2.90951 (Simulation time: 2 hr 12 min 32 sec) 
Heartbeat CPU 0 instructions: 1740000001 cycles: 551188140 heartbeat IPC: 2.90973 cumulative IPC: 2.90951 (Simulation time: 2 hr 13 min 26 sec) 
Heartbeat CPU 0 instructions: 1750000000 cycles: 554624057 heartbeat IPC: 2.91043 cumulative IPC: 2.90952 (Simulation time: 2 hr 14 min 14 sec) 
Heartbeat CPU 0 instructions: 1760000001 cycles: 558060954 heartbeat IPC: 2.9096 cumulative IPC: 2.90952 (Simulation time: 2 hr 14 min 46 sec) 
Heartbeat CPU 0 instructions: 1770000000 cycles: 561498438 heartbeat IPC: 2.9091 cumulative IPC: 2.90952 (Simulation time: 2 hr 15 min 30 sec) 
Heartbeat CPU 0 instructions: 1780000003 cycles: 564934477 heartbeat IPC: 2.91033 cumulative IPC: 2.90952 (Simulation time: 2 hr 16 min 24 sec) 
Heartbeat CPU 0 instructions: 1790000003 cycles: 568370711 heartbeat IPC: 2.91016 cumulative IPC: 2.90953 (Simulation time: 2 hr 17 min 6 sec) 
Heartbeat CPU 0 instructions: 1800000002 cycles: 571807426 heartbeat IPC: 2.90975 cumulative IPC: 2.90953 (Simulation time: 2 hr 18 min 0 sec) 
Heartbeat CPU 0 instructions: 1810000000 cycles: 575244109 heartbeat IPC: 2.90978 cumulative IPC: 2.90953 (Simulation time: 2 hr 18 min 46 sec) 
Heartbeat CPU 0 instructions: 1820000003 cycles: 578679982 heartbeat IPC: 2.91047 cumulative IPC: 2.90954 (Simulation time: 2 hr 19 min 36 sec) 
Heartbeat CPU 0 instructions: 1830000003 cycles: 582119211 heartbeat IPC: 2.90763 cumulative IPC: 2.90953 (Simulation time: 2 hr 20 min 8 sec) 
Heartbeat CPU 0 instructions: 1840000004 cycles: 585565326 heartbeat IPC: 2.90182 cumulative IPC: 2.90947 (Simulation time: 2 hr 20 min 55 sec) 
Heartbeat CPU 0 instructions: 1850000004 cycles: 589013694 heartbeat IPC: 2.89992 cumulative IPC: 2.9094 (Simulation time: 2 hr 21 min 43 sec) 
Heartbeat CPU 0 instructions: 1860000003 cycles: 592461111 heartbeat IPC: 2.90072 cumulative IPC: 2.90933 (Simulation time: 2 hr 22 min 38 sec) 
Heartbeat CPU 0 instructions: 1870000000 cycles: 595911217 heartbeat IPC: 2.89846 cumulative IPC: 2.90925 (Simulation time: 2 hr 23 min 30 sec) 
Heartbeat CPU 0 instructions: 1880000002 cycles: 599360879 heartbeat IPC: 2.89884 cumulative IPC: 2.90918 (Simulation time: 2 hr 24 min 17 sec) 
Heartbeat CPU 0 instructions: 1890000002 cycles: 602810901 heartbeat IPC: 2.89853 cumulative IPC: 2.9091 (Simulation time: 2 hr 25 min 0 sec) 
Heartbeat CPU 0 instructions: 1900000003 cycles: 606260228 heartbeat IPC: 2.89912 cumulative IPC: 2.90903 (Simulation time: 2 hr 25 min 35 sec) 
Heartbeat CPU 0 instructions: 1910000002 cycles: 609710442 heartbeat IPC: 2.89837 cumulative IPC: 2.90895 (Simulation time: 2 hr 26 min 25 sec) 
Heartbeat CPU 0 instructions: 1920000000 cycles: 613158649 heartbeat IPC: 2.90006 cumulative IPC: 2.90889 (Simulation time: 2 hr 27 min 20 sec) 
Heartbeat CPU 0 instructions: 1930000004 cycles: 616609082 heartbeat IPC: 2.89819 cumulative IPC: 2.90882 (Simulation time: 2 hr 28 min 15 sec) 
Heartbeat CPU 0 instructions: 1940000001 cycles: 620057918 heartbeat IPC: 2.89953 cumulative IPC: 2.90875 (Simulation time: 2 hr 29 min 10 sec) 
Heartbeat CPU 0 instructions: 1950000002 cycles: 623509867 heartbeat IPC: 2.89691 cumulative IPC: 2.90867 (Simulation time: 2 hr 30 min 5 sec) 
Heartbeat CPU 0 instructions: 1960000002 cycles: 626957932 heartbeat IPC: 2.90018 cumulative IPC: 2.90861 (Simulation time: 2 hr 31 min 0 sec) 
Heartbeat CPU 0 instructions: 1970000002 cycles: 630407919 heartbeat IPC: 2.89856 cumulative IPC: 2.90854 (Simulation time: 2 hr 31 min 47 sec) 
Heartbeat CPU 0 instructions: 1980000004 cycles: 633856057 heartbeat IPC: 2.90012 cumulative IPC: 2.90848 (Simulation time: 2 hr 32 min 17 sec) 
Heartbeat CPU 0 instructions: 1990000004 cycles: 637306016 heartbeat IPC: 2.89859 cumulative IPC: 2.90842 (Simulation time: 2 hr 32 min 57 sec) 
*** Reached end of trace: traces/638.imagick_s-10316B.champsimtrace.xz
Heartbeat CPU 0 instructions: 2000000004 cycles: 640753618 heartbeat IPC: 2.90057 cumulative IPC: 2.90837 (Simulation time: 2 hr 33 min 27 sec) 
Finished CPU 0 instructions: 1500000002 cycles: 515753554 cumulative IPC: 2.90837 (Simulation time: 2 hr 33 min 27 sec) 

ChampSim completed all CPUs

Region of Interest Statistics

CPU 0 cumulative IPC: 2.90837 instructions: 1500000002 cycles: 515753554
cpu0_DTLB TOTAL     ACCESS:  126244345  HIT:  125549276  MISS:     695069
cpu0_DTLB LOAD      ACCESS:  126206948  HIT:  125519768  MISS:     687180
cpu0_DTLB RFO       ACCESS:      37397  HIT:      29508  MISS:       7889
cpu0_DTLB PREFETCH  ACCESS:          0  HIT:          0  MISS:          0
cpu0_DTLB WRITEBACK ACCESS:          0  HIT:          0  MISS:          0
cpu0_DTLB TRANSLATION ACCESS:          0  HIT:          0  MISS:          0
cpu0_DTLB PREFETCH  REQUESTED:          0  ISSUED:          0  USEFUL:          0  USELESS:          0
cpu0_DTLB AVERAGE MISS LATENCY: 9.29907 cycles
cpu0_ITLB TOTAL     ACCESS:   39006502  HIT:   39006502  MISS:          0
cpu0_ITLB LOAD      ACCESS:   39006502  HIT:   39006502  MISS:          0
cpu0_ITLB RFO       ACCESS:          0  HIT:          0  MISS:          0
cpu0_ITLB PREFETCH  ACCESS:          0  HIT:          0  MISS:          0
cpu0_ITLB WRITEBACK ACCESS:          0  HIT:          0  MISS:          0
cpu0_ITLB TRANSLATION ACCESS:          0  HIT:          0  MISS:          0
cpu0_ITLB PREFETCH  REQUESTED:          0  ISSUED:          0  USEFUL:          0  USELESS:          0
cpu0_ITLB AVERAGE MISS LATENCY: -nan cycles
cpu0_STLB TOTAL     ACCESS:     695069  HIT:     694154  MISS:        915
cpu0_STLB LOAD      ACCESS:     687180  HIT:     686273  MISS:        907
cpu0_STLB RFO       ACCESS:       7889  HIT:       7881  MISS:          8
cpu0_STLB PREFETCH  ACCESS:          0  HIT:          0  MISS:          0
cpu0_STLB WRITEBACK ACCESS:          0  HIT:          0  MISS:          0
cpu0_STLB TRANSLATION ACCESS:          0  HIT:          0  MISS:          0
cpu0_STLB PREFETCH  REQUESTED:          0  ISSUED:          0  USEFUL:          0  USELESS:          0
cpu0_STLB AVERAGE MISS LATENCY: 219.384 cycles
cpu0_L1D TOTAL     ACCESS:   52427035  HIT:   39076386  MISS:   13350649
cpu0_L1D LOAD      ACCESS:   52359209  HIT:   39018368  MISS:   13340841
cpu0_L1D RFO       ACCESS:      66911  HIT:      58018  MISS:       8893
cpu0_L1D PREFETCH  ACCESS:          0  HIT:          0  MISS:          0
cpu0_L1D WRITEBACK ACCESS:          0  HIT:          0  MISS:          0
cpu0_L1D TRANSLATION ACCESS:        915  HIT:          0  MISS:        915
cpu0_L1D PREFETCH  REQUESTED:          0  ISSUED:          0  USEFUL:          0  USELESS:          0
cpu0_L1D AVERAGE MISS LATENCY: 11.8955 cycles
cpu0_L2C TOTAL     ACCESS:   13372092  HIT:   13285324  MISS:      86768
cpu0_L2C LOAD      ACCESS:   13340841  HIT:   13254801  MISS:      86040
cpu0_L2C RFO       ACCESS:       8893  HIT:       8174  MISS:        719
cpu0_L2C PREFETCH  ACCESS:          0  HIT:          0  MISS:          0
cpu0_L2C WRITEBACK ACCESS:      21443  HIT:      21443  MISS:          0
cpu0_L2C TRANSLATION ACCESS:        915  HIT:        906  MISS:          9
cpu0_L2C PREFETCH  REQUESTED:          0  ISSUED:          0  USEFUL:          0  USELESS:          0
cpu0_L2C AVERAGE MISS LATENCY: 131.228 cycles
LLC TOTAL     ACCESS:      87568  HIT:      28604  MISS:      58964
LLC LOAD      ACCESS:      86040  HIT:      27600  MISS:      58440
LLC RFO       ACCESS:        719  HIT:        196  MISS:        523
LLC PREFETCH  ACCESS:          0  HIT:          0  MISS:          0
LLC WRITEBACK ACCESS:        800  HIT:        800  MISS:          0
LLC TRANSLATION ACCESS:          9  HIT:          8  MISS:          1
LLC PREFETCH  REQUESTED:          0  ISSUED:          0  USEFUL:          0  USELESS:          0
LLC AVERAGE MISS LATENCY: 162.205 cycles
~~~~~~~~~~Reuse Distance Profiler output~~~~~~~~~~
0	41319872	41305424
1	28082704	28069984
2	16112368	16107984
3	3713792	3708832
4	101232	98752
5	28816	26752
6	7296	4416
7	4048	2544
8	5392	2752
9	4304	1824
10	1920	16
11	1072	112
12	2016	464
13	736	0
14	2432	80
15	2784	128
16	3120	32
17	1840	128
18	2848	304
19	2160	1264
20	1760	0
21	1280	0
22	240	0
23	64	0
24	224	0
25	0	0
26	0	0
27	0	0
28	0	0
29	0	0
30	0	0
31	0	0
32	0	0
33	0	0
34	0	0
35	0	0
36	0	0
37	0	0
38	96	0
39	624	0
40	528	0
41	80	0
42	736	0
43	1008	0
44	496	0
45	720	0
46	304	0
47	0	0
48	256	0
49	880	0
50	656	0
51	624	0
52	176	0
53	0	0
54	0	0
55	0	0
56	0	0
57	0	0
58	0	0
59	0	0
60	0	0
61	0	0
62	0	0
63	0	0
64	0	0
66	0	0
68	0	0
70	0	0
72	0	0
74	0	0
76	0	0
78	0	0
80	0	0
82	0	0
84	0	0
86	0	0
88	15408	15408
90	14544	14544
92	13200	13200
94	11792	11792
96	3632	3632
98	31120	31120
100	43872	43872
102	77872	77872
104	23168	23168
106	63456	63456
108	57504	57504
110	67120	67120
112	135440	135440
114	56800	56800
116	42144	42144
118	35632	35632
120	49312	49312
122	60816	60816
124	58928	58928
126	57632	57632
128	7664	7664
132	0	0
136	0	0
140	0	0
144	0	0
148	0	0
152	0	0
156	0	0
160	0	0
164	0	0
168	0	0
172	0	0
176	0	0
180	0	0
184	0	0
188	0	0
192	0	0
196	0	0
200	0	0
204	0	0
208	0	0
212	0	0
216	0	0
220	0	0
224	0	0
228	0	0
232	0	0
236	0	0
240	0	0
244	0	0
248	0	0
252	0	0
256	0	0
264	0	0
272	0	0
280	0	0
288	0	0
296	0	0
304	0	0
312	0	0
320	2032	2032
328	1120	1120
336	32	32
344	144	144
352	26784	26784
360	278352	278352
368	0	0
376	0	0
384	0	0
392	0	0
400	0	0
408	0	0
416	0	0
424	0	0
432	0	0
440	0	0
448	0	0
456	0	0
464	0	0
472	0	0
480	0	0
488	0	0
496	0	0
504	0	0
512	0	0
528	0	0
544	0	0
560	0	0
576	0	0
592	0	0
608	0	0
624	0	0
640	0	0
656	0	0
672	0	0
688	0	0
704	0	0
720	0	0
736	0	0
752	0	0
768	0	0
784	0	0
800	0	0
816	0	0
832	0	0
848	0	0
864	0	0
880	0	0
896	0	0
912	0	0
928	0	0
944	0	0
960	0	0
976	0	0
992	0	0
1008	0	0
1024	0	0
1056	0	0
1088	0	0
1120	0	0
1152	0	0
1184	0	0
1216	0	0
1248	0	0
1280	0	0
1312	0	0
1344	0	0
1376	0	0
1408	0	0
1440	0	0
1472	0	0
1504	0	0
1536	0	0
1568	0	0
1600	0	0
1632	0	0
1664	0	0
1696	0	0
1728	0	0
1760	0	0
1792	0	0
1824	0	0
1856	0	0
1888	0	0
1920	0	0
1952	0	0
1984	0	0
2016	0	0
2048	0	0
2112	0	0
2176	0	0
2240	0	0
2304	0	0
2368	0	0
2432	0	0
2496	0	0
2560	0	0
2624	0	0
2688	0	0
2752	0	0
2816	0	0
2880	0	0
2944	0	0
3008	0	0
3072	0	0
3136	0	0
3200	0	0
3264	0	0
3328	0	0
3392	0	0
3456	0	0
3520	0	0
3584	0	0
3648	0	0
3712	0	0
3776	0	0
3840	0	0
3904	0	0
3968	0	0
4032	0	0
4096	0	0
4224	0	0
4352	0	0
4480	0	0
4608	0	0
4736	0	0
4864	0	0
4992	0	0
5120	0	0
5248	0	0
5376	0	0
5504	0	0
5632	0	0
5760	0	0
5888	16	16
6016	3472	3472
6144	2496	2496
6272	992	992
6400	1552	1552
6528	1104	1104
6656	0	0
6784	0	0
6912	0	0
7040	0	0
7168	0	0
7296	0	0
7424	0	0
7552	0	0
7680	0	0
7808	0	0
7936	0	0
8064	0	0
8192	0	0
8448	0	0
8704	0	0
8960	0	0
9216	0	0
9472	0	0
9728	0	0
9984	0	0
10240	0	0
10496	0	0
10752	0	0
11008	0	0
11264	0	0
11520	0	0
11776	672	672
12032	2938240	2935696
12288	4799840	4797520
12544	2909712	2908672
12800	2331088	2330064
13056	321200	320160
13312	32	32
13568	0	0
13824	16	16
14080	48	48
14336	32	32
14592	32	32
14848	48	48
15104	0	0
15360	32	32
15616	32	32
15872	64	64
16128	48	48
16384	64	64
16896	96	96
17408	32	32
17920	64	64
18432	80	64
18944	96	96
19456	64	64
19968	3328	3328
20480	64	64
20992	112	112
21504	80	80
22016	64	64
22528	32	32
23040	64	64
23552	64	64
24064	32	32
24576	48	48
25088	96	96
25600	80	80
26112	112	112
26624	48	48
27136	96	96
27648	96	96
28160	32	32
28672	64	64
29184	112	112
29696	48	48
30208	32	32
30720	64	64
31232	128	128
31744	48	48
32256	128	128
32768	128	128
33792	96	96
34816	48	48
35840	208	208
36864	224	224
37888	1376	1376
38912	1680	1680
39936	4429760	4427280
40960	0	0
41984	0	0
43008	0	0
44032	0	0
45056	0	0
46080	0	0
47104	0	0
48128	0	0
49152	0	0
50176	0	0
51200	0	0
52224	0	0
53248	0	0
54272	0	0
55296	0	0
56320	0	0
57344	0	0
58368	0	0
59392	0	0
60416	0	0
61440	0	0
62464	0	0
63488	0	0
64512	0	0
65536	0	0
67584	0	0
69632	0	0
71680	0	0
73728	0	0
75776	0	0
77824	0	0
79872	0	0
81920	0	0
83968	0	0
86016	0	0
88064	0	0
90112	0	0
92160	0	0
94208	0	0
96256	0	0
98304	0	0
100352	0	0
102400	0	0
104448	0	0
106496	0	0
108544	0	0
110592	0	0
112640	0	0
114688	0	0
116736	0	0
118784	0	0
120832	0	0
122880	0	0
124928	0	0
126976	0	0
129024	0	0
131072	0	0
135168	0	0
139264	0	0
143360	0	0
147456	0	0
151552	0	0
155648	0	0
159744	0	0
163840	0	0
167936	0	0
172032	0	0
176128	0	0
180224	0	0
184320	0	0
188416	0	0
192512	0	0
196608	0	0
200704	0	0
204800	0	0
208896	0	0
212992	0	0
217088	0	0
221184	0	0
225280	0	0
229376	0	0
233472	0	0
237568	0	0
241664	0	0
245760	0	0
249856	0	0
253952	0	0
258048	0	0
262144	0	0
270336	0	0
278528	0	0
286720	0	0
294912	0	0
303104	0	0
311296	0	0
319488	0	0
327680	0	0
335872	0	0
344064	0	0
352256	0	0
360448	0	0
368640	0	0
376832	0	0
385024	0	0
393216	0	0
401408	0	0
409600	0	0
417792	0	0
425984	0	0
434176	0	0
442368	0	0
450560	0	0
458752	0	0
466944	0	0
475136	0	0
483328	0	0
491520	0	0
499712	16	16
507904	0	0
516096	0	0
524288	0	0
540672	0	0
557056	0	0
573440	0	0
589824	0	0
606208	0	0
622592	0	0
638976	0	0
655360	0	0
671744	0	0
688128	0	0
704512	0	0
720896	0	0
737280	0	0
753664	0	0
770048	0	0
786432	0	0
802816	0	0
819200	0	0
835584	0	0
851968	0	0
868352	0	0
884736	0	0
901120	0	0
917504	0	0
933888	0	0
950272	0	0
966656	16	16
983040	0	0
999424	0	0
1015808	0	0
1032192	0	0
1048576	0	0
1081344	0	0
1114112	16	16
1146880	0	0
1179648	0	0
1212416	0	0
1245184	0	0
1277952	0	0
1310720	0	0
1343488	32	32
1376256	0	0
1409024	0	0
1441792	0	0
1474560	0	0
1507328	0	0
1540096	0	0
1572864	0	0
1605632	0	0
1638400	0	0
1671168	0	0
1703936	0	0
1736704	0	0
1769472	0	0
1802240	16	16
1835008	0	0
1867776	0	0
1900544	0	0
1933312	0	0
1966080	0	0
1998848	0	0
2031616	0	0
2064384	0	0
2097152	0	0
2162688	0	0
2228224	0	0
2293760	0	0
2359296	0	0
2424832	0	0
2490368	0	0
2555904	0	0
2621440	0	0
2686976	0	0
2752512	0	0
2818048	0	0
2883584	0	0
2949120	0	0
3014656	0	0
3080192	0	0
3145728	0	0
3211264	0	0
3276800	0	0
3342336	0	0
3407872	0	0
3473408	0	0
3538944	0	0
3604480	0	0
3670016	0	0
3735552	0	0
3801088	0	0
3866624	0	0
3932160	0	0
3997696	0	0
4063232	0	0
4128768	0	0
4194304	0	0
4325376	0	0
4456448	0	0
4587520	0	0
4718592	0	0
4849664	0	0
4980736	0	0
5111808	0	0
5242880	0	0
5373952	0	0
5505024	0	0
5636096	0	0
5767168	0	0
5898240	0	0
6029312	0	0
6160384	0	0
6291456	0	0
6422528	0	0
6553600	0	0
6684672	0	0
6815744	0	0
6946816	0	0
7077888	0	0
7208960	0	0
7340032	0	0
7471104	0	0
7602176	0	0
7733248	0	0
7864320	0	0
7995392	0	0
8126464	0	0
8257536	0	0
8388608	0	0
8650752	0	0
8912896	0	0
9175040	0	0
9437184	0	0
9699328	0	0
9961472	0	0
10223616	0	0
10485760	0	0
10747904	0	0
11010048	0	0
11272192	0	0
11534336	0	0
11796480	0	0
12058624	0	0
12320768	0	0
12582912	0	0
12845056	0	0
13107200	0	0
13369344	0	0
13631488	0	0
13893632	0	0
14155776	0	0
14417920	0	0
14680064	0	0
14942208	0	0
15204352	0	0
15466496	0	0
15728640	0	0
15990784	0	0
16252928	0	0
16515072	0	0
16777216	0	0
17301504	0	0
17825792	0	0
18350080	0	0
18874368	0	0
19398656	0	0
19922944	0	0
20447232	0	0
20971520	0	0
21495808	0	0
22020096	0	0
22544384	0	0
23068672	0	0
23592960	0	0
24117248	0	0
24641536	0	0
25165824	0	0
25690112	0	0
26214400	0	0
26738688	0	0
27262976	0	0
27787264	0	0
28311552	0	0
28835840	0	0
29360128	0	0
29884416	0	0
30408704	0	0
30932992	0	0
31457280	0	0
31981568	0	0
32505856	0	0
33030144	0	0
33554432	0	0
34603008	0	0
35651584	0	0
36700160	0	0
37748736	0	0
38797312	0	0
39845888	0	0
40894464	0	0
41943040	0	0
42991616	0	0
44040192	0	0
45088768	0	0
46137344	0	0
47185920	0	0
48234496	0	0
49283072	0	0
50331648	0	0
51380224	0	0
52428800	0	0
53477376	0	0
54525952	0	0
55574528	0	0
56623104	0	0
57671680	0	0
58720256	0	0
59768832	0	0
60817408	0	0
61865984	0	0
62914560	0	0
63963136	0	0
65011712	0	0
66060288	0	0
67108864	0	0
69206016	0	0
71303168	0	0
73400320	0	0
75497472	0	0
77594624	0	0
79691776	0	0
81788928	0	0
83886080	0	0
85983232	0	0
88080384	0	0
90177536	0	0
92274688	0	0
94371840	0	0
96468992	0	0
98566144	0	0
100663296	0	0
102760448	0	0
104857600	0	0
106954752	0	0
109051904	0	0
111149056	0	0
113246208	0	0
115343360	0	0
117440512	0	0
119537664	0	0
121634816	0	0
123731968	0	0
125829120	0	0
127926272	0	0
130023424	0	0
132120576	0	0
134217728	0	0
138412032	0	0
142606336	0	0
146800640	0	0
150994944	0	0
155189248	0	0
159383552	0	0
163577856	0	0
167772160	0	0
171966464	0	0
176160768	0	0
180355072	0	0
184549376	0	0
188743680	0	0
192937984	0	0
197132288	0	0
201326592	0	0
205520896	0	0
209715200	0	0
213909504	0	0
218103808	0	0
222298112	0	0
226492416	0	0
230686720	0	0
234881024	0	0
239075328	0	0
243269632	0	0
247463936	0	0
251658240	0	0
255852544	0	0
260046848	0	0
264241152	0	0
268435456	0	0
276824064	0	0
285212672	0	0
293601280	0	0
301989888	0	0
310378496	0	0
318767104	0	0
327155712	0	0
335544320	0	0
343932928	0	0
352321536	0	0
360710144	0	0
369098752	0	0
377487360	0	0
385875968	0	0
394264576	0	0
402653184	0	0
411041792	0	0
419430400	0	0
427819008	0	0
436207616	0	0
444596224	0	0
452984832	0	0
461373440	0	0
469762048	0	0
478150656	0	0
486539264	0	0
494927872	0	0
503316480	0	0
511705088	0	0
520093696	0	0
528482304	0	0
536870912	0	0
553648128	0	0
570425344	0	0
587202560	0	0
603979776	0	0
620756992	0	0
637534208	0	0
654311424	0	0
671088640	0	0
687865856	0	0
704643072	0	0
721420288	0	0
738197504	0	0
754974720	0	0
771751936	0	0
788529152	0	0
805306368	0	0
822083584	0	0
838860800	0	0
855638016	0	0
872415232	0	0
889192448	0	0
905969664	0	0
922746880	0	0
939524096	0	0
956301312	0	0
973078528	0	0
989855744	0	0
1006632960	0	0
1023410176	0	0
1040187392	0	0
1056964608	0	0
1073741824	0	0
1107296256	0	0
1140850688	0	0
1174405120	0	0
1207959552	0	0
1241513984	0	0
1275068416	0	0
1308622848	0	0
1342177280	0	0
1375731712	0	0
1409286144	0	0
1442840576	0	0
1476395008	0	0
1509949440	0	0
1543503872	0	0
1577058304	0	0
1610612736	0	0
1644167168	0	0
1677721600	0	0
1711276032	0	0
1744830464	0	0
1778384896	0	0
1811939328	0	0
1845493760	0	0
1879048192	0	0
1912602624	0	0
1946157056	0	0
1979711488	0	0
2013265920	0	0
2046820352	0	0
2080374784	0	0
2113929216	0	0
2147483648	0	0
2214592512	0	0
2281701376	0	0
2348810240	0	0
2415919104	0	0
2483027968	0	0
2550136832	0	0
2617245696	0	0
2684354560	0	0
2751463424	0	0
2818572288	0	0
2885681152	0	0
2952790016	0	0
3019898880	0	0
3087007744	0	0
3154116608	0	0
3221225472	0	0
3288334336	0	0
3355443200	0	0
3422552064	0	0
3489660928	0	0
3556769792	0	0
3623878656	0	0
3690987520	0	0
3758096384	0	0
3825205248	0	0
3892314112	0	0
3959422976	0	0
4026531840	0	0
4093640704	0	0
4160749568	0	0
4227858432	0	0
~~~~~~~~~~Reuse Distance Profiler output end~~~~~~~~~~

DRAM Statistics
 CHANNEL 0
 RQ ROW_BUFFER_HIT:          0  ROW_BUFFER_MISS:      58964
 DBUS AVG_CONGESTED_CYCLE:        3.5
 WQ ROW_BUFFER_HIT:          0  ROW_BUFFER_MISS:        454  FULL:          0


CPU 0 Branch Prediction Accuracy: 99.396% MPKI: 0.625123 Average ROB Occupancy at Mispredict: 189.076
Branch type MPKI
BRANCH_DIRECT_JUMP: 0
BRANCH_INDIRECT: 0
BRANCH_CONDITIONAL: 0.625123
BRANCH_DIRECT_CALL: 0
BRANCH_INDIRECT_CALL: 0
BRANCH_RETURN: 0

