
*** ChampSim Multicore Out-of-Order Simulator ***

Warmup Instructions: 500000000
Simulation Instructions: 1500000000
Number of CPUs: 1
Off-chip DRAM Size: 4 GiB Channels: 1 Width: 64-bit Data Rate: 3200 MT/s

VirtualMemory physical capacity: 8588881920 num_ppages: 2096895
VirtualMemory page size: 4096 log2_page_size: 12

CPU 0 runs traces/638.imagick_s-4128B.champsimtrace.xz
CPU 0 Bimodal branch predictor
Basic BTB sets: 1024 ways: 8 indirect buffer size: 4096 RAS size: 64
Initializing LRU.
Initializing LRU.
Initializing LRU.
Initializing LRU.
Initializing rdLRU.
Initializing LRU.
Initializing LRU.
Heartbeat CPU 0 instructions: 10000003 cycles: 2927456 heartbeat IPC: 3.41594 cumulative IPC: 3.41594 (Simulation time: 0 hr 1 min 12 sec) 
Heartbeat CPU 0 instructions: 20000003 cycles: 5854744 heartbeat IPC: 3.41613 cumulative IPC: 3.41603 (Simulation time: 0 hr 2 min 21 sec) 
Heartbeat CPU 0 instructions: 30000002 cycles: 8782076 heartbeat IPC: 3.41608 cumulative IPC: 3.41605 (Simulation time: 0 hr 3 min 34 sec) 
Heartbeat CPU 0 instructions: 40000001 cycles: 11709547 heartbeat IPC: 3.41592 cumulative IPC: 3.41602 (Simulation time: 0 hr 4 min 49 sec) 
Heartbeat CPU 0 instructions: 50000004 cycles: 14636833 heartbeat IPC: 3.41613 cumulative IPC: 3.41604 (Simulation time: 0 hr 6 min 0 sec) 
Heartbeat CPU 0 instructions: 60000002 cycles: 17564120 heartbeat IPC: 3.41613 cumulative IPC: 3.41606 (Simulation time: 0 hr 7 min 11 sec) 
Heartbeat CPU 0 instructions: 70000002 cycles: 20491404 heartbeat IPC: 3.41614 cumulative IPC: 3.41607 (Simulation time: 0 hr 8 min 22 sec) 
Heartbeat CPU 0 instructions: 80000000 cycles: 23418691 heartbeat IPC: 3.41613 cumulative IPC: 3.41607 (Simulation time: 0 hr 9 min 34 sec) 
Heartbeat CPU 0 instructions: 90000004 cycles: 26346055 heartbeat IPC: 3.41604 cumulative IPC: 3.41607 (Simulation time: 0 hr 10 min 46 sec) 
Heartbeat CPU 0 instructions: 100000000 cycles: 29273495 heartbeat IPC: 3.41595 cumulative IPC: 3.41606 (Simulation time: 0 hr 11 min 57 sec) 
Heartbeat CPU 0 instructions: 110000002 cycles: 32200783 heartbeat IPC: 3.41613 cumulative IPC: 3.41607 (Simulation time: 0 hr 13 min 9 sec) 
Heartbeat CPU 0 instructions: 120000004 cycles: 35128069 heartbeat IPC: 3.41613 cumulative IPC: 3.41607 (Simulation time: 0 hr 14 min 18 sec) 
Heartbeat CPU 0 instructions: 130000003 cycles: 38055355 heartbeat IPC: 3.41613 cumulative IPC: 3.41608 (Simulation time: 0 hr 15 min 33 sec) 
Heartbeat CPU 0 instructions: 140000000 cycles: 40982640 heartbeat IPC: 3.41613 cumulative IPC: 3.41608 (Simulation time: 0 hr 16 min 44 sec) 
Heartbeat CPU 0 instructions: 150000001 cycles: 43910030 heartbeat IPC: 3.41601 cumulative IPC: 3.41608 (Simulation time: 0 hr 17 min 59 sec) 
Heartbeat CPU 0 instructions: 160000003 cycles: 46837446 heartbeat IPC: 3.41598 cumulative IPC: 3.41607 (Simulation time: 0 hr 19 min 9 sec) 
Heartbeat CPU 0 instructions: 170000002 cycles: 49764732 heartbeat IPC: 3.41613 cumulative IPC: 3.41607 (Simulation time: 0 hr 20 min 20 sec) 
Heartbeat CPU 0 instructions: 180000000 cycles: 52692018 heartbeat IPC: 3.41613 cumulative IPC: 3.41608 (Simulation time: 0 hr 21 min 26 sec) 
Heartbeat CPU 0 instructions: 190000003 cycles: 55619303 heartbeat IPC: 3.41614 cumulative IPC: 3.41608 (Simulation time: 0 hr 22 min 38 sec) 
Heartbeat CPU 0 instructions: 200000000 cycles: 58546587 heartbeat IPC: 3.41613 cumulative IPC: 3.41608 (Simulation time: 0 hr 23 min 50 sec) 
Heartbeat CPU 0 instructions: 210000004 cycles: 61474003 heartbeat IPC: 3.41598 cumulative IPC: 3.41608 (Simulation time: 0 hr 25 min 3 sec) 
Heartbeat CPU 0 instructions: 220000002 cycles: 64401394 heartbeat IPC: 3.41601 cumulative IPC: 3.41608 (Simulation time: 0 hr 26 min 8 sec) 
Heartbeat CPU 0 instructions: 230000000 cycles: 67328679 heartbeat IPC: 3.41613 cumulative IPC: 3.41608 (Simulation time: 0 hr 27 min 19 sec) 
Heartbeat CPU 0 instructions: 240000003 cycles: 70255968 heartbeat IPC: 3.41613 cumulative IPC: 3.41608 (Simulation time: 0 hr 28 min 27 sec) 
Heartbeat CPU 0 instructions: 250000004 cycles: 73183252 heartbeat IPC: 3.41614 cumulative IPC: 3.41608 (Simulation time: 0 hr 29 min 36 sec) 
Heartbeat CPU 0 instructions: 260000003 cycles: 76110538 heartbeat IPC: 3.41613 cumulative IPC: 3.41608 (Simulation time: 0 hr 30 min 48 sec) 
Heartbeat CPU 0 instructions: 270000002 cycles: 79037975 heartbeat IPC: 3.41596 cumulative IPC: 3.41608 (Simulation time: 0 hr 31 min 56 sec) 
Heartbeat CPU 0 instructions: 280000004 cycles: 81965344 heartbeat IPC: 3.41604 cumulative IPC: 3.41608 (Simulation time: 0 hr 33 min 8 sec) 
Heartbeat CPU 0 instructions: 290000002 cycles: 84892628 heartbeat IPC: 3.41614 cumulative IPC: 3.41608 (Simulation time: 0 hr 34 min 18 sec) 
Heartbeat CPU 0 instructions: 300000002 cycles: 87819916 heartbeat IPC: 3.41613 cumulative IPC: 3.41608 (Simulation time: 0 hr 35 min 27 sec) 
Heartbeat CPU 0 instructions: 310000001 cycles: 90747201 heartbeat IPC: 3.41613 cumulative IPC: 3.41608 (Simulation time: 0 hr 36 min 32 sec) 
Heartbeat CPU 0 instructions: 320000002 cycles: 93674487 heartbeat IPC: 3.41613 cumulative IPC: 3.41609 (Simulation time: 0 hr 37 min 47 sec) 
Heartbeat CPU 0 instructions: 330000003 cycles: 96601975 heartbeat IPC: 3.4159 cumulative IPC: 3.41608 (Simulation time: 0 hr 38 min 51 sec) 
Heartbeat CPU 0 instructions: 340000001 cycles: 99529292 heartbeat IPC: 3.4161 cumulative IPC: 3.41608 (Simulation time: 0 hr 39 min 55 sec) 
Heartbeat CPU 0 instructions: 350000002 cycles: 102456577 heartbeat IPC: 3.41614 cumulative IPC: 3.41608 (Simulation time: 0 hr 40 min 59 sec) 
Heartbeat CPU 0 instructions: 360000003 cycles: 105383866 heartbeat IPC: 3.41613 cumulative IPC: 3.41608 (Simulation time: 0 hr 42 min 15 sec) 
Heartbeat CPU 0 instructions: 370000003 cycles: 108311151 heartbeat IPC: 3.41613 cumulative IPC: 3.41608 (Simulation time: 0 hr 43 min 29 sec) 
Heartbeat CPU 0 instructions: 380000004 cycles: 111238436 heartbeat IPC: 3.41614 cumulative IPC: 3.41609 (Simulation time: 0 hr 44 min 22 sec) 
Heartbeat CPU 0 instructions: 390000002 cycles: 114165955 heartbeat IPC: 3.41586 cumulative IPC: 3.41608 (Simulation time: 0 hr 45 min 34 sec) 
Heartbeat CPU 0 instructions: 400000000 cycles: 117093241 heartbeat IPC: 3.41613 cumulative IPC: 3.41608 (Simulation time: 0 hr 46 min 49 sec) 
Heartbeat CPU 0 instructions: 410000002 cycles: 120020526 heartbeat IPC: 3.41614 cumulative IPC: 3.41608 (Simulation time: 0 hr 48 min 4 sec) 
Heartbeat CPU 0 instructions: 420000002 cycles: 122947811 heartbeat IPC: 3.41613 cumulative IPC: 3.41608 (Simulation time: 0 hr 49 min 18 sec) 
Heartbeat CPU 0 instructions: 430000004 cycles: 125875099 heartbeat IPC: 3.41613 cumulative IPC: 3.41608 (Simulation time: 0 hr 50 min 23 sec) 
Heartbeat CPU 0 instructions: 440000001 cycles: 128802384 heartbeat IPC: 3.41613 cumulative IPC: 3.41609 (Simulation time: 0 hr 51 min 34 sec) 
Heartbeat CPU 0 instructions: 450000000 cycles: 131729903 heartbeat IPC: 3.41586 cumulative IPC: 3.41608 (Simulation time: 0 hr 52 min 32 sec) 
Heartbeat CPU 0 instructions: 460000002 cycles: 134627901 heartbeat IPC: 3.45066 cumulative IPC: 3.41683 (Simulation time: 0 hr 53 min 33 sec) 
Heartbeat CPU 0 instructions: 470000000 cycles: 137555385 heartbeat IPC: 3.4159 cumulative IPC: 3.41681 (Simulation time: 0 hr 54 min 47 sec) 
Heartbeat CPU 0 instructions: 480000001 cycles: 140482671 heartbeat IPC: 3.41613 cumulative IPC: 3.41679 (Simulation time: 0 hr 56 min 2 sec) 
Heartbeat CPU 0 instructions: 490000000 cycles: 143409958 heartbeat IPC: 3.41613 cumulative IPC: 3.41678 (Simulation time: 0 hr 57 min 16 sec) 
Heartbeat CPU 0 instructions: 500000004 cycles: 146337244 heartbeat IPC: 3.41613 cumulative IPC: 3.41677 (Simulation time: 0 hr 58 min 28 sec) 

Warmup complete CPU 0 instructions: 500000004 cycles: 146337244 (Simulation time: 0 hr 58 min 28 sec) 

Heartbeat CPU 0 instructions: 510000002 cycles: 150262625 heartbeat IPC: 2.54752 cumulative IPC: 2.54752 (Simulation time: 0 hr 59 min 51 sec) 
Heartbeat CPU 0 instructions: 520000001 cycles: 154175112 heartbeat IPC: 2.55592 cumulative IPC: 2.55171 (Simulation time: 1 hr 1 min 10 sec) 
Heartbeat CPU 0 instructions: 530000000 cycles: 158084391 heartbeat IPC: 2.55802 cumulative IPC: 2.55381 (Simulation time: 1 hr 2 min 30 sec) 
Heartbeat CPU 0 instructions: 540000003 cycles: 162001718 heartbeat IPC: 2.55276 cumulative IPC: 2.55355 (Simulation time: 1 hr 3 min 43 sec) 
Heartbeat CPU 0 instructions: 550000001 cycles: 165928522 heartbeat IPC: 2.5466 cumulative IPC: 2.55216 (Simulation time: 1 hr 5 min 9 sec) 
Heartbeat CPU 0 instructions: 560000004 cycles: 169851944 heartbeat IPC: 2.5488 cumulative IPC: 2.5516 (Simulation time: 1 hr 6 min 31 sec) 
Heartbeat CPU 0 instructions: 570000000 cycles: 173775156 heartbeat IPC: 2.54893 cumulative IPC: 2.55121 (Simulation time: 1 hr 7 min 58 sec) 
Heartbeat CPU 0 instructions: 580000002 cycles: 177699842 heartbeat IPC: 2.54798 cumulative IPC: 2.55081 (Simulation time: 1 hr 9 min 16 sec) 
Heartbeat CPU 0 instructions: 590000000 cycles: 181622451 heartbeat IPC: 2.54932 cumulative IPC: 2.55064 (Simulation time: 1 hr 10 min 30 sec) 
Heartbeat CPU 0 instructions: 600000003 cycles: 185546405 heartbeat IPC: 2.54845 cumulative IPC: 2.55042 (Simulation time: 1 hr 12 min 0 sec) 
Heartbeat CPU 0 instructions: 610000004 cycles: 189473461 heartbeat IPC: 2.54644 cumulative IPC: 2.55006 (Simulation time: 1 hr 13 min 1 sec) 
Heartbeat CPU 0 instructions: 620000002 cycles: 193400990 heartbeat IPC: 2.54613 cumulative IPC: 2.54973 (Simulation time: 1 hr 14 min 21 sec) 
Heartbeat CPU 0 instructions: 630000000 cycles: 197327895 heartbeat IPC: 2.54653 cumulative IPC: 2.54949 (Simulation time: 1 hr 15 min 43 sec) 
Heartbeat CPU 0 instructions: 640000000 cycles: 201253360 heartbeat IPC: 2.54747 cumulative IPC: 2.54934 (Simulation time: 1 hr 16 min 46 sec) 
Heartbeat CPU 0 instructions: 650000003 cycles: 205180470 heartbeat IPC: 2.5464 cumulative IPC: 2.54915 (Simulation time: 1 hr 17 min 48 sec) 
Heartbeat CPU 0 instructions: 660000001 cycles: 209101766 heartbeat IPC: 2.55018 cumulative IPC: 2.54921 (Simulation time: 1 hr 19 min 11 sec) 
Heartbeat CPU 0 instructions: 670000004 cycles: 213021598 heartbeat IPC: 2.55113 cumulative IPC: 2.54932 (Simulation time: 1 hr 20 min 17 sec) 
Heartbeat CPU 0 instructions: 680000002 cycles: 216942584 heartbeat IPC: 2.55038 cumulative IPC: 2.54938 (Simulation time: 1 hr 21 min 16 sec) 
Heartbeat CPU 0 instructions: 690000000 cycles: 220867445 heartbeat IPC: 2.54786 cumulative IPC: 2.5493 (Simulation time: 1 hr 22 min 26 sec) 
Heartbeat CPU 0 instructions: 700000001 cycles: 224791258 heartbeat IPC: 2.54854 cumulative IPC: 2.54926 (Simulation time: 1 hr 23 min 56 sec) 
Heartbeat CPU 0 instructions: 710000003 cycles: 228714512 heartbeat IPC: 2.54891 cumulative IPC: 2.54925 (Simulation time: 1 hr 25 min 12 sec) 
Heartbeat CPU 0 instructions: 720000001 cycles: 232638789 heartbeat IPC: 2.54824 cumulative IPC: 2.5492 (Simulation time: 1 hr 26 min 13 sec) 
Heartbeat CPU 0 instructions: 730000004 cycles: 236568508 heartbeat IPC: 2.54471 cumulative IPC: 2.54901 (Simulation time: 1 hr 27 min 8 sec) 
Heartbeat CPU 0 instructions: 740000002 cycles: 240499635 heartbeat IPC: 2.5438 cumulative IPC: 2.54879 (Simulation time: 1 hr 28 min 21 sec) 
Heartbeat CPU 0 instructions: 750000003 cycles: 244428403 heartbeat IPC: 2.54533 cumulative IPC: 2.54865 (Simulation time: 1 hr 29 min 36 sec) 
Heartbeat CPU 0 instructions: 760000003 cycles: 248355593 heartbeat IPC: 2.54635 cumulative IPC: 2.54856 (Simulation time: 1 hr 30 min 51 sec) 
Heartbeat CPU 0 instructions: 770000003 cycles: 252284024 heartbeat IPC: 2.54555 cumulative IPC: 2.54845 (Simulation time: 1 hr 32 min 9 sec) 
Heartbeat CPU 0 instructions: 780000001 cycles: 256210709 heartbeat IPC: 2.54668 cumulative IPC: 2.54839 (Simulation time: 1 hr 33 min 18 sec) 
Heartbeat CPU 0 instructions: 790000002 cycles: 260141985 heartbeat IPC: 2.5437 cumulative IPC: 2.54822 (Simulation time: 1 hr 34 min 33 sec) 
Heartbeat CPU 0 instructions: 800000000 cycles: 264073773 heartbeat IPC: 2.54337 cumulative IPC: 2.54806 (Simulation time: 1 hr 35 min 59 sec) 
Heartbeat CPU 0 instructions: 810000003 cycles: 268005350 heartbeat IPC: 2.54351 cumulative IPC: 2.54791 (Simulation time: 1 hr 37 min 19 sec) 
Heartbeat CPU 0 instructions: 820000000 cycles: 271928441 heartbeat IPC: 2.54901 cumulative IPC: 2.54795 (Simulation time: 1 hr 38 min 49 sec) 
Heartbeat CPU 0 instructions: 830000001 cycles: 275846732 heartbeat IPC: 2.55213 cumulative IPC: 2.54808 (Simulation time: 1 hr 40 min 19 sec) 
Heartbeat CPU 0 instructions: 840000004 cycles: 279771662 heartbeat IPC: 2.54782 cumulative IPC: 2.54807 (Simulation time: 1 hr 41 min 49 sec) 
Heartbeat CPU 0 instructions: 850000002 cycles: 283704243 heartbeat IPC: 2.54286 cumulative IPC: 2.54792 (Simulation time: 1 hr 43 min 18 sec) 
Heartbeat CPU 0 instructions: 860000000 cycles: 287630075 heartbeat IPC: 2.54723 cumulative IPC: 2.5479 (Simulation time: 1 hr 44 min 34 sec) 
Heartbeat CPU 0 instructions: 870000003 cycles: 291551138 heartbeat IPC: 2.55033 cumulative IPC: 2.54797 (Simulation time: 1 hr 45 min 57 sec) 
Heartbeat CPU 0 instructions: 880000003 cycles: 295477372 heartbeat IPC: 2.54697 cumulative IPC: 2.54794 (Simulation time: 1 hr 47 min 14 sec) 
Heartbeat CPU 0 instructions: 890000001 cycles: 299408662 heartbeat IPC: 2.54369 cumulative IPC: 2.54783 (Simulation time: 1 hr 48 min 42 sec) 
Heartbeat CPU 0 instructions: 900000004 cycles: 303336993 heartbeat IPC: 2.54561 cumulative IPC: 2.54777 (Simulation time: 1 hr 50 min 8 sec) 
Heartbeat CPU 0 instructions: 910000002 cycles: 307264659 heartbeat IPC: 2.54604 cumulative IPC: 2.54773 (Simulation time: 1 hr 51 min 37 sec) 
Heartbeat CPU 0 instructions: 920000000 cycles: 311197222 heartbeat IPC: 2.54287 cumulative IPC: 2.54762 (Simulation time: 1 hr 53 min 6 sec) 
Heartbeat CPU 0 instructions: 930000001 cycles: 315158509 heartbeat IPC: 2.52443 cumulative IPC: 2.54707 (Simulation time: 1 hr 54 min 34 sec) 
Heartbeat CPU 0 instructions: 940000002 cycles: 319086531 heartbeat IPC: 2.54581 cumulative IPC: 2.54704 (Simulation time: 1 hr 55 min 56 sec) 
Heartbeat CPU 0 instructions: 950000002 cycles: 323013419 heartbeat IPC: 2.54655 cumulative IPC: 2.54703 (Simulation time: 1 hr 57 min 16 sec) 
Heartbeat CPU 0 instructions: 960000002 cycles: 326944034 heartbeat IPC: 2.54413 cumulative IPC: 2.54697 (Simulation time: 1 hr 58 min 35 sec) 
Heartbeat CPU 0 instructions: 970000000 cycles: 330877009 heartbeat IPC: 2.5426 cumulative IPC: 2.54688 (Simulation time: 2 hr 0 min 0 sec) 
Heartbeat CPU 0 instructions: 980000001 cycles: 334809620 heartbeat IPC: 2.54284 cumulative IPC: 2.54679 (Simulation time: 2 hr 1 min 9 sec) 
Heartbeat CPU 0 instructions: 990000004 cycles: 338736403 heartbeat IPC: 2.54661 cumulative IPC: 2.54679 (Simulation time: 2 hr 2 min 39 sec) 
Heartbeat CPU 0 instructions: 1000000002 cycles: 342656340 heartbeat IPC: 2.55106 cumulative IPC: 2.54687 (Simulation time: 2 hr 4 min 9 sec) 
Heartbeat CPU 0 instructions: 1010000000 cycles: 346577049 heartbeat IPC: 2.55056 cumulative IPC: 2.54695 (Simulation time: 2 hr 5 min 39 sec) 
Heartbeat CPU 0 instructions: 1020000000 cycles: 350502244 heartbeat IPC: 2.54764 cumulative IPC: 2.54696 (Simulation time: 2 hr 6 min 46 sec) 
Heartbeat CPU 0 instructions: 1030000003 cycles: 354426052 heartbeat IPC: 2.54855 cumulative IPC: 2.54699 (Simulation time: 2 hr 7 min 53 sec) 
Heartbeat CPU 0 instructions: 1040000001 cycles: 358348154 heartbeat IPC: 2.54965 cumulative IPC: 2.54704 (Simulation time: 2 hr 9 min 22 sec) 
Heartbeat CPU 0 instructions: 1050000004 cycles: 362272892 heartbeat IPC: 2.54794 cumulative IPC: 2.54706 (Simulation time: 2 hr 10 min 39 sec) 
Heartbeat CPU 0 instructions: 1060000002 cycles: 366202351 heartbeat IPC: 2.54488 cumulative IPC: 2.54702 (Simulation time: 2 hr 11 min 49 sec) 
Heartbeat CPU 0 instructions: 1070000000 cycles: 370131745 heartbeat IPC: 2.54492 cumulative IPC: 2.54698 (Simulation time: 2 hr 12 min 53 sec) 
Heartbeat CPU 0 instructions: 1080000000 cycles: 374064408 heartbeat IPC: 2.54281 cumulative IPC: 2.54691 (Simulation time: 2 hr 14 min 3 sec) 
Heartbeat CPU 0 instructions: 1090000003 cycles: 377996871 heartbeat IPC: 2.54294 cumulative IPC: 2.54684 (Simulation time: 2 hr 15 min 23 sec) 
Heartbeat CPU 0 instructions: 1100000001 cycles: 381925323 heartbeat IPC: 2.54553 cumulative IPC: 2.54682 (Simulation time: 2 hr 16 min 39 sec) 
Heartbeat CPU 0 instructions: 1110000002 cycles: 385854453 heartbeat IPC: 2.54509 cumulative IPC: 2.54679 (Simulation time: 2 hr 18 min 3 sec) 
Heartbeat CPU 0 instructions: 1120000000 cycles: 389787181 heartbeat IPC: 2.54276 cumulative IPC: 2.54672 (Simulation time: 2 hr 19 min 27 sec) 
Heartbeat CPU 0 instructions: 1130000001 cycles: 393718102 heartbeat IPC: 2.54393 cumulative IPC: 2.54668 (Simulation time: 2 hr 20 min 54 sec) 
Heartbeat CPU 0 instructions: 1140000000 cycles: 397648443 heartbeat IPC: 2.54431 cumulative IPC: 2.54664 (Simulation time: 2 hr 22 min 20 sec) 
Heartbeat CPU 0 instructions: 1150000003 cycles: 401576283 heartbeat IPC: 2.54593 cumulative IPC: 2.54663 (Simulation time: 2 hr 23 min 50 sec) 
Heartbeat CPU 0 instructions: 1160000004 cycles: 405504610 heartbeat IPC: 2.54561 cumulative IPC: 2.54662 (Simulation time: 2 hr 25 min 15 sec) 
Heartbeat CPU 0 instructions: 1170000002 cycles: 409436021 heartbeat IPC: 2.54362 cumulative IPC: 2.54657 (Simulation time: 2 hr 26 min 28 sec) 
Heartbeat CPU 0 instructions: 1180000000 cycles: 413366393 heartbeat IPC: 2.54429 cumulative IPC: 2.54654 (Simulation time: 2 hr 27 min 58 sec) 
Heartbeat CPU 0 instructions: 1190000002 cycles: 417290373 heartbeat IPC: 2.54843 cumulative IPC: 2.54657 (Simulation time: 2 hr 29 min 28 sec) 
Heartbeat CPU 0 instructions: 1200000003 cycles: 421214203 heartbeat IPC: 2.54853 cumulative IPC: 2.54659 (Simulation time: 2 hr 30 min 58 sec) 
Heartbeat CPU 0 instructions: 1210000001 cycles: 425139685 heartbeat IPC: 2.54746 cumulative IPC: 2.54661 (Simulation time: 2 hr 32 min 28 sec) 
Heartbeat CPU 0 instructions: 1220000004 cycles: 429061399 heartbeat IPC: 2.54991 cumulative IPC: 2.54665 (Simulation time: 2 hr 33 min 51 sec) 
Heartbeat CPU 0 instructions: 1230000002 cycles: 432983972 heartbeat IPC: 2.54935 cumulative IPC: 2.54669 (Simulation time: 2 hr 34 min 39 sec) 
Heartbeat CPU 0 instructions: 1240000000 cycles: 436907678 heartbeat IPC: 2.54861 cumulative IPC: 2.54671 (Simulation time: 2 hr 35 min 27 sec) 
Heartbeat CPU 0 instructions: 1250000002 cycles: 440830281 heartbeat IPC: 2.54933 cumulative IPC: 2.54675 (Simulation time: 2 hr 36 min 15 sec) 
Heartbeat CPU 0 instructions: 1260000003 cycles: 444759240 heartbeat IPC: 2.5452 cumulative IPC: 2.54673 (Simulation time: 2 hr 37 min 3 sec) 
Heartbeat CPU 0 instructions: 1270000001 cycles: 448686859 heartbeat IPC: 2.54607 cumulative IPC: 2.54672 (Simulation time: 2 hr 37 min 52 sec) 
Heartbeat CPU 0 instructions: 1280000004 cycles: 452614934 heartbeat IPC: 2.54578 cumulative IPC: 2.54671 (Simulation time: 2 hr 38 min 40 sec) 
Heartbeat CPU 0 instructions: 1290000000 cycles: 456534681 heartbeat IPC: 2.55118 cumulative IPC: 2.54677 (Simulation time: 2 hr 39 min 28 sec) 
Heartbeat CPU 0 instructions: 1300000003 cycles: 460448199 heartbeat IPC: 2.55525 cumulative IPC: 2.54687 (Simulation time: 2 hr 40 min 17 sec) 
Heartbeat CPU 0 instructions: 1310000000 cycles: 464370199 heartbeat IPC: 2.54972 cumulative IPC: 2.54691 (Simulation time: 2 hr 41 min 27 sec) 
Heartbeat CPU 0 instructions: 1320000003 cycles: 468303413 heartbeat IPC: 2.54245 cumulative IPC: 2.54685 (Simulation time: 2 hr 42 min 28 sec) 
Heartbeat CPU 0 instructions: 1330000004 cycles: 472231482 heartbeat IPC: 2.54578 cumulative IPC: 2.54684 (Simulation time: 2 hr 43 min 59 sec) 
Heartbeat CPU 0 instructions: 1340000002 cycles: 476155036 heartbeat IPC: 2.54871 cumulative IPC: 2.54686 (Simulation time: 2 hr 45 min 22 sec) 
Heartbeat CPU 0 instructions: 1350000000 cycles: 480082090 heartbeat IPC: 2.54644 cumulative IPC: 2.54686 (Simulation time: 2 hr 46 min 35 sec) 
Heartbeat CPU 0 instructions: 1360000003 cycles: 484014495 heartbeat IPC: 2.54297 cumulative IPC: 2.54681 (Simulation time: 2 hr 48 min 4 sec) 
Heartbeat CPU 0 instructions: 1370000000 cycles: 487945880 heartbeat IPC: 2.54363 cumulative IPC: 2.54677 (Simulation time: 2 hr 49 min 2 sec) 
Heartbeat CPU 0 instructions: 1380000001 cycles: 491873779 heartbeat IPC: 2.54589 cumulative IPC: 2.54676 (Simulation time: 2 hr 49 min 50 sec) 
Heartbeat CPU 0 instructions: 1390000004 cycles: 495800800 heartbeat IPC: 2.54646 cumulative IPC: 2.54676 (Simulation time: 2 hr 50 min 39 sec) 
Heartbeat CPU 0 instructions: 1400000000 cycles: 499760386 heartbeat IPC: 2.52552 cumulative IPC: 2.54652 (Simulation time: 2 hr 51 min 25 sec) 
Heartbeat CPU 0 instructions: 1410000003 cycles: 503694092 heartbeat IPC: 2.54213 cumulative IPC: 2.54647 (Simulation time: 2 hr 52 min 15 sec) 
Heartbeat CPU 0 instructions: 1420000001 cycles: 507627744 heartbeat IPC: 2.54217 cumulative IPC: 2.54643 (Simulation time: 2 hr 53 min 3 sec) 
Heartbeat CPU 0 instructions: 1430000004 cycles: 511561238 heartbeat IPC: 2.54227 cumulative IPC: 2.54638 (Simulation time: 2 hr 53 min 51 sec) 
Heartbeat CPU 0 instructions: 1440000004 cycles: 515493039 heartbeat IPC: 2.54336 cumulative IPC: 2.54635 (Simulation time: 2 hr 54 min 40 sec) 
Heartbeat CPU 0 instructions: 1450000002 cycles: 519416500 heartbeat IPC: 2.54877 cumulative IPC: 2.54638 (Simulation time: 2 hr 55 min 28 sec) 
Heartbeat CPU 0 instructions: 1460000000 cycles: 523330609 heartbeat IPC: 2.55486 cumulative IPC: 2.54646 (Simulation time: 2 hr 56 min 16 sec) 
Heartbeat CPU 0 instructions: 1470000003 cycles: 527245248 heartbeat IPC: 2.55451 cumulative IPC: 2.54655 (Simulation time: 2 hr 57 min 4 sec) 
Heartbeat CPU 0 instructions: 1480000004 cycles: 531163841 heartbeat IPC: 2.55194 cumulative IPC: 2.5466 (Simulation time: 2 hr 57 min 52 sec) 
Heartbeat CPU 0 instructions: 1490000002 cycles: 535087273 heartbeat IPC: 2.54879 cumulative IPC: 2.54662 (Simulation time: 2 hr 58 min 40 sec) 
Heartbeat CPU 0 instructions: 1500000004 cycles: 539010480 heartbeat IPC: 2.54894 cumulative IPC: 2.54665 (Simulation time: 2 hr 59 min 28 sec) 
Heartbeat CPU 0 instructions: 1510000002 cycles: 542933560 heartbeat IPC: 2.54902 cumulative IPC: 2.54667 (Simulation time: 3 hr 0 min 16 sec) 
Heartbeat CPU 0 instructions: 1520000003 cycles: 546858439 heartbeat IPC: 2.54785 cumulative IPC: 2.54668 (Simulation time: 3 hr 1 min 3 sec) 
Heartbeat CPU 0 instructions: 1530000001 cycles: 550782239 heartbeat IPC: 2.54855 cumulative IPC: 2.5467 (Simulation time: 3 hr 1 min 50 sec) 
Heartbeat CPU 0 instructions: 1540000004 cycles: 554705139 heartbeat IPC: 2.54914 cumulative IPC: 2.54672 (Simulation time: 3 hr 2 min 37 sec) 
Heartbeat CPU 0 instructions: 1550000002 cycles: 558631782 heartbeat IPC: 2.5467 cumulative IPC: 2.54672 (Simulation time: 3 hr 3 min 24 sec) 
Heartbeat CPU 0 instructions: 1560000004 cycles: 562557863 heartbeat IPC: 2.54707 cumulative IPC: 2.54673 (Simulation time: 3 hr 4 min 11 sec) 
Heartbeat CPU 0 instructions: 1570000000 cycles: 566477776 heartbeat IPC: 2.55108 cumulative IPC: 2.54677 (Simulation time: 3 hr 4 min 59 sec) 
Heartbeat CPU 0 instructions: 1580000003 cycles: 570400238 heartbeat IPC: 2.54942 cumulative IPC: 2.54679 (Simulation time: 3 hr 5 min 46 sec) 
Heartbeat CPU 0 instructions: 1590000001 cycles: 574322476 heartbeat IPC: 2.54956 cumulative IPC: 2.54682 (Simulation time: 3 hr 6 min 33 sec) 
Heartbeat CPU 0 instructions: 1600000004 cycles: 578239366 heartbeat IPC: 2.55305 cumulative IPC: 2.54687 (Simulation time: 3 hr 7 min 20 sec) 
Heartbeat CPU 0 instructions: 1610000002 cycles: 582155160 heartbeat IPC: 2.55376 cumulative IPC: 2.54694 (Simulation time: 3 hr 8 min 7 sec) 
Heartbeat CPU 0 instructions: 1620000004 cycles: 586070274 heartbeat IPC: 2.5542 cumulative IPC: 2.547 (Simulation time: 3 hr 8 min 54 sec) 
Heartbeat CPU 0 instructions: 1630000000 cycles: 589991903 heartbeat IPC: 2.54996 cumulative IPC: 2.54703 (Simulation time: 3 hr 9 min 41 sec) 
Heartbeat CPU 0 instructions: 1640000003 cycles: 593919460 heartbeat IPC: 2.54611 cumulative IPC: 2.54702 (Simulation time: 3 hr 10 min 28 sec) 
Heartbeat CPU 0 instructions: 1650000001 cycles: 597841082 heartbeat IPC: 2.54996 cumulative IPC: 2.54704 (Simulation time: 3 hr 11 min 16 sec) 
Heartbeat CPU 0 instructions: 1660000002 cycles: 601757978 heartbeat IPC: 2.55304 cumulative IPC: 2.5471 (Simulation time: 3 hr 12 min 3 sec) 
Heartbeat CPU 0 instructions: 1670000000 cycles: 605682174 heartbeat IPC: 2.54829 cumulative IPC: 2.54711 (Simulation time: 3 hr 12 min 50 sec) 
Heartbeat CPU 0 instructions: 1680000004 cycles: 609608410 heartbeat IPC: 2.54697 cumulative IPC: 2.5471 (Simulation time: 3 hr 13 min 37 sec) 
Heartbeat CPU 0 instructions: 1690000000 cycles: 613531658 heartbeat IPC: 2.54891 cumulative IPC: 2.54712 (Simulation time: 3 hr 14 min 24 sec) 
Heartbeat CPU 0 instructions: 1700000001 cycles: 617446422 heartbeat IPC: 2.55443 cumulative IPC: 2.54718 (Simulation time: 3 hr 15 min 11 sec) 
Heartbeat CPU 0 instructions: 1710000004 cycles: 621366921 heartbeat IPC: 2.5507 cumulative IPC: 2.54721 (Simulation time: 3 hr 15 min 59 sec) 
Heartbeat CPU 0 instructions: 1720000002 cycles: 625289890 heartbeat IPC: 2.54909 cumulative IPC: 2.54722 (Simulation time: 3 hr 16 min 46 sec) 
Heartbeat CPU 0 instructions: 1730000000 cycles: 629214111 heartbeat IPC: 2.54828 cumulative IPC: 2.54723 (Simulation time: 3 hr 17 min 33 sec) 
Heartbeat CPU 0 instructions: 1740000001 cycles: 633136508 heartbeat IPC: 2.54946 cumulative IPC: 2.54725 (Simulation time: 3 hr 18 min 20 sec) 
Heartbeat CPU 0 instructions: 1750000003 cycles: 637064336 heartbeat IPC: 2.54594 cumulative IPC: 2.54724 (Simulation time: 3 hr 19 min 7 sec) 
Heartbeat CPU 0 instructions: 1760000001 cycles: 640986771 heartbeat IPC: 2.54944 cumulative IPC: 2.54726 (Simulation time: 3 hr 19 min 54 sec) 
Heartbeat CPU 0 instructions: 1770000004 cycles: 644901505 heartbeat IPC: 2.55445 cumulative IPC: 2.54731 (Simulation time: 3 hr 20 min 41 sec) 
Heartbeat CPU 0 instructions: 1780000002 cycles: 648824745 heartbeat IPC: 2.54891 cumulative IPC: 2.54733 (Simulation time: 3 hr 21 min 28 sec) 
Heartbeat CPU 0 instructions: 1790000003 cycles: 652756923 heartbeat IPC: 2.54312 cumulative IPC: 2.54729 (Simulation time: 3 hr 22 min 16 sec) 
Heartbeat CPU 0 instructions: 1800000000 cycles: 656685179 heartbeat IPC: 2.54566 cumulative IPC: 2.54728 (Simulation time: 3 hr 23 min 3 sec) 
Heartbeat CPU 0 instructions: 1810000003 cycles: 660609673 heartbeat IPC: 2.5481 cumulative IPC: 2.54729 (Simulation time: 3 hr 23 min 50 sec) 
Heartbeat CPU 0 instructions: 1820000001 cycles: 664537417 heartbeat IPC: 2.54599 cumulative IPC: 2.54728 (Simulation time: 3 hr 24 min 37 sec) 
Heartbeat CPU 0 instructions: 1830000004 cycles: 668467604 heartbeat IPC: 2.54441 cumulative IPC: 2.54726 (Simulation time: 3 hr 25 min 25 sec) 
Heartbeat CPU 0 instructions: 1840000000 cycles: 672393171 heartbeat IPC: 2.5474 cumulative IPC: 2.54726 (Simulation time: 3 hr 26 min 12 sec) 
Heartbeat CPU 0 instructions: 1850000003 cycles: 676320174 heartbeat IPC: 2.54647 cumulative IPC: 2.54725 (Simulation time: 3 hr 26 min 59 sec) 
Heartbeat CPU 0 instructions: 1860000000 cycles: 680251434 heartbeat IPC: 2.54371 cumulative IPC: 2.54723 (Simulation time: 3 hr 27 min 46 sec) 
Heartbeat CPU 0 instructions: 1870000001 cycles: 684204890 heartbeat IPC: 2.52943 cumulative IPC: 2.5471 (Simulation time: 3 hr 28 min 32 sec) 
Heartbeat CPU 0 instructions: 1880000004 cycles: 688141431 heartbeat IPC: 2.5403 cumulative IPC: 2.54705 (Simulation time: 3 hr 29 min 19 sec) 
Heartbeat CPU 0 instructions: 1890000000 cycles: 692068948 heartbeat IPC: 2.54614 cumulative IPC: 2.54704 (Simulation time: 3 hr 30 min 7 sec) 
Heartbeat CPU 0 instructions: 1900000003 cycles: 695998733 heartbeat IPC: 2.54467 cumulative IPC: 2.54702 (Simulation time: 3 hr 30 min 55 sec) 
Heartbeat CPU 0 instructions: 1910000001 cycles: 699930750 heartbeat IPC: 2.54322 cumulative IPC: 2.547 (Simulation time: 3 hr 31 min 43 sec) 
Heartbeat CPU 0 instructions: 1920000004 cycles: 703852789 heartbeat IPC: 2.5497 cumulative IPC: 2.54701 (Simulation time: 3 hr 32 min 31 sec) 
Heartbeat CPU 0 instructions: 1930000002 cycles: 707769399 heartbeat IPC: 2.55323 cumulative IPC: 2.54706 (Simulation time: 3 hr 33 min 19 sec) 
Heartbeat CPU 0 instructions: 1940000002 cycles: 711689625 heartbeat IPC: 2.55087 cumulative IPC: 2.54708 (Simulation time: 3 hr 34 min 7 sec) 
Heartbeat CPU 0 instructions: 1950000000 cycles: 715615291 heartbeat IPC: 2.54734 cumulative IPC: 2.54709 (Simulation time: 3 hr 34 min 55 sec) 
Heartbeat CPU 0 instructions: 1960000003 cycles: 719542900 heartbeat IPC: 2.54608 cumulative IPC: 2.54708 (Simulation time: 3 hr 35 min 42 sec) 
Heartbeat CPU 0 instructions: 1970000001 cycles: 723467625 heartbeat IPC: 2.54795 cumulative IPC: 2.54708 (Simulation time: 3 hr 36 min 29 sec) 
Heartbeat CPU 0 instructions: 1980000002 cycles: 727391292 heartbeat IPC: 2.54864 cumulative IPC: 2.5471 (Simulation time: 3 hr 37 min 17 sec) 
Heartbeat CPU 0 instructions: 1990000001 cycles: 731315370 heartbeat IPC: 2.54837 cumulative IPC: 2.5471 (Simulation time: 3 hr 38 min 4 sec) 
*** Reached end of trace: traces/638.imagick_s-4128B.champsimtrace.xz
Heartbeat CPU 0 instructions: 2000000002 cycles: 735243388 heartbeat IPC: 2.54581 cumulative IPC: 2.5471 (Simulation time: 3 hr 38 min 52 sec) 
Finished CPU 0 instructions: 1500000003 cycles: 588906145 cumulative IPC: 2.5471 (Simulation time: 3 hr 38 min 52 sec) 

ChampSim completed all CPUs

Region of Interest Statistics

CPU 0 cumulative IPC: 2.5471 instructions: 1500000003 cycles: 588906145
cpu0_DTLB TOTAL     ACCESS:  279929909  HIT:  279414553  MISS:     515356
cpu0_DTLB LOAD      ACCESS:  264148880  HIT:  263677826  MISS:     471054
cpu0_DTLB RFO       ACCESS:   15781029  HIT:   15736727  MISS:      44302
cpu0_DTLB PREFETCH  ACCESS:          0  HIT:          0  MISS:          0
cpu0_DTLB WRITEBACK ACCESS:          0  HIT:          0  MISS:          0
cpu0_DTLB TRANSLATION ACCESS:          0  HIT:          0  MISS:          0
cpu0_DTLB PREFETCH  REQUESTED:          0  ISSUED:          0  USEFUL:          0  USELESS:          0
cpu0_DTLB AVERAGE MISS LATENCY: 9.09975 cycles
cpu0_ITLB TOTAL     ACCESS:   71686252  HIT:   71686252  MISS:          0
cpu0_ITLB LOAD      ACCESS:   71686252  HIT:   71686252  MISS:          0
cpu0_ITLB RFO       ACCESS:          0  HIT:          0  MISS:          0
cpu0_ITLB PREFETCH  ACCESS:          0  HIT:          0  MISS:          0
cpu0_ITLB WRITEBACK ACCESS:          0  HIT:          0  MISS:          0
cpu0_ITLB TRANSLATION ACCESS:          0  HIT:          0  MISS:          0
cpu0_ITLB PREFETCH  REQUESTED:          0  ISSUED:          0  USEFUL:          0  USELESS:          0
cpu0_ITLB AVERAGE MISS LATENCY: -nan cycles
cpu0_L1I TOTAL     ACCESS:     134552  HIT:     134552  MISS:          0
cpu0_L1I LOAD      ACCESS:     134552  HIT:     134552  MISS:          0
cpu0_L1I RFO       ACCESS:          0  HIT:          0  MISS:          0
cpu0_L1I PREFETCH  ACCESS:          0  HIT:          0  MISS:          0
cpu0_L1I WRITEBACK ACCESS:          0  HIT:          0  MISS:          0
cpu0_L1I TRANSLATION ACCESS:          0  HIT:          0  MISS:          0
cpu0_L1I PREFETCH  REQUESTED:          0  ISSUED:          0  USEFUL:          0  USELESS:          0
cpu0_L1I AVERAGE MISS LATENCY: -nan cycles
cpu0_STLB TOTAL     ACCESS:     515356  HIT:     515150  MISS:        206
cpu0_STLB LOAD      ACCESS:     471054  HIT:     470917  MISS:        137
cpu0_STLB RFO       ACCESS:      44302  HIT:      44233  MISS:         69
cpu0_STLB PREFETCH  ACCESS:          0  HIT:          0  MISS:          0
cpu0_STLB WRITEBACK ACCESS:          0  HIT:          0  MISS:          0
cpu0_STLB TRANSLATION ACCESS:          0  HIT:          0  MISS:          0
cpu0_STLB PREFETCH  REQUESTED:          0  ISSUED:          0  USEFUL:          0  USELESS:          0
cpu0_STLB AVERAGE MISS LATENCY: 219.893 cycles
cpu0_L1D TOTAL     ACCESS:  275206470  HIT:  275043872  MISS:     162598
cpu0_L1D LOAD      ACCESS:  227527877  HIT:  227369888  MISS:     157989
cpu0_L1D RFO       ACCESS:   47678387  HIT:   47673984  MISS:       4403
cpu0_L1D PREFETCH  ACCESS:          0  HIT:          0  MISS:          0
cpu0_L1D WRITEBACK ACCESS:          0  HIT:          0  MISS:          0
cpu0_L1D TRANSLATION ACCESS:        206  HIT:          0  MISS:        206
cpu0_L1D PREFETCH  REQUESTED:          0  ISSUED:          0  USEFUL:          0  USELESS:          0
cpu0_L1D AVERAGE MISS LATENCY: 187.408 cycles
cpu0_L2C TOTAL     ACCESS:     167011  HIT:       4830  MISS:     162181
cpu0_L2C LOAD      ACCESS:     157989  HIT:        212  MISS:     157777
cpu0_L2C RFO       ACCESS:       4403  HIT:          0  MISS:       4403
cpu0_L2C PREFETCH  ACCESS:          0  HIT:          0  MISS:          0
cpu0_L2C WRITEBACK ACCESS:       4413  HIT:       4413  MISS:          0
cpu0_L2C TRANSLATION ACCESS:        206  HIT:        205  MISS:          1
cpu0_L2C PREFETCH  REQUESTED:          0  ISSUED:          0  USEFUL:          0  USELESS:          0
cpu0_L2C AVERAGE MISS LATENCY: 176.861 cycles
LLC TOTAL     ACCESS:     166676  HIT:      10859  MISS:     155817
LLC LOAD      ACCESS:     157777  HIT:       6362  MISS:     151415
LLC RFO       ACCESS:       4403  HIT:          2  MISS:       4401
LLC PREFETCH  ACCESS:          0  HIT:          0  MISS:          0
LLC WRITEBACK ACCESS:       4495  HIT:       4495  MISS:          0
LLC TRANSLATION ACCESS:          1  HIT:          0  MISS:          1
LLC PREFETCH  REQUESTED:          0  ISSUED:          0  USEFUL:          0  USELESS:          0
LLC AVERAGE MISS LATENCY: 162.227 cycles
~~~~~~~~~~Reuse Distance Profiler output~~~~~~~~~~
0	56455408	14048704
1	42010832	36636496
2	50099472	47667504
3	49958352	48335792
4	56458512	55584144
5	41916080	41108672
6	31641008	31419680
7	11839056	11811248
8	6970768	6895392
9	2822448	2706128
10	1763664	1746752
11	1472048	1466400
12	847088	824576
13	1567936	1555040
14	1298640	1259328
15	1998672	1977488
16	414128	410240
17	382272	338992
18	126704	77360
19	30544	18352
20	29344	16704
21	15536	9904
22	9632	8704
23	21552	10336
24	11760	4192
25	12448	10832
26	52416	36992
27	55552	11440
28	57184	31232
29	155056	2192
30	283984	1984
31	580832	27840
32	188720	12064
33	12560	8512
34	7200	7072
35	11120	11056
36	4400	4224
37	13952	13808
38	18512	18464
39	143728	143536
40	142496	142464
41	18736	14560
42	131536	126096
43	11440	10704
44	24288	23360
45	165984	165040
46	292992	291328
47	483008	475088
48	728864	726064
49	478736	477680
50	213088	206976
51	91424	64896
52	599856	567264
53	204544	145072
54	453776	322928
55	279568	199904
56	278944	237584
57	236720	228048
58	136704	135040
59	40656	36384
60	31040	30848
61	17072	13296
62	32048	8592
63	9072	5104
64	4080	3376
66	1280	656
68	544	320
70	1056	384
72	1088	592
74	1104	448
76	784	432
78	752	480
80	912	528
82	688	528
84	608	512
86	672	624
88	960	880
90	656	624
92	608	528
94	704	704
96	1024	992
98	960	672
100	864	544
102	1248	960
104	1424	960
106	1088	608
108	1184	640
110	960	432
112	1696	928
114	2480	1616
116	4240	3456
118	6112	5040
120	4000	3168
122	2224	1680
124	1472	480
126	1648	1216
128	3936	2192
132	3344	1616
136	3184	1968
140	3056	1520
144	24448	23280
148	15712	14128
152	42736	40944
156	3696	1680
160	3792	2432
164	257600	256112
168	1257824	1255840
172	818592	817264
176	61216	59856
180	2688	1520
184	2192	1056
188	1168	464
192	1680	864
196	1824	1536
200	512	336
204	352	224
208	176	112
212	80	80
216	32	32
220	32	32
224	0	0
228	64	64
232	992	992
236	3536	3536
240	60624	60624
244	160944	160944
248	265968	265968
252	221584	221584
256	108448	108448
264	16	16
272	16	16
280	16	16
288	0	0
296	0	0
304	0	0
312	0	0
320	0	0
328	0	0
336	0	0
344	0	0
352	0	0
360	0	0
368	0	0
376	0	0
384	0	0
392	0	0
400	0	0
408	0	0
416	0	0
424	0	0
432	0	0
440	0	0
448	0	0
456	0	0
464	0	0
472	0	0
480	0	0
488	0	0
496	0	0
504	0	0
512	0	0
528	0	0
544	0	0
560	0	0
576	0	0
592	0	0
608	0	0
624	0	0
640	0	0
656	0	0
672	0	0
688	0	0
704	0	0
720	0	0
736	0	0
752	0	0
768	0	0
784	0	0
800	0	0
816	0	0
832	0	0
848	0	0
864	0	0
880	0	0
896	0	0
912	0	0
928	0	0
944	0	0
960	0	0
976	0	0
992	0	0
1008	0	0
1024	0	0
1056	0	0
1088	0	0
1120	0	0
1152	0	0
1184	0	0
1216	0	0
1248	0	0
1280	0	0
1312	0	0
1344	0	0
1376	0	0
1408	16	16
1440	16	16
1472	0	0
1504	0	0
1536	16	16
1568	0	0
1600	0	0
1632	0	0
1664	0	0
1696	74720	74720
1728	132784	132784
1760	136288	136288
1792	193504	193504
1824	195824	129248
1856	75104	35504
1888	103248	34928
1920	75440	39120
1952	129872	94240
1984	93120	58160
2016	150336	91040
2048	229088	151312
2112	204240	85920
2176	208896	117664
2240	197648	87056
2304	171008	89120
2368	211360	111216
2432	178192	93568
2496	213984	91232
2560	168928	86000
2624	177264	86736
2688	203184	118560
2752	193824	90064
2816	190976	89232
2880	173536	85696
2944	240784	116672
3008	177456	92544
3072	202896	115936
3136	178960	89312
3200	174320	88832
3264	239520	118480
3328	175088	88576
3392	178352	89504
3456	213008	105312
3520	197408	99232
3584	181328	85712
3648	162256	87856
3712	231792	106768
3776	182112	97648
3840	213840	90544
3904	148784	95040
3968	225872	107472
4032	171888	87296
4096	351040	177520
4224	414832	207792
4352	411520	203472
4480	356448	177664
4608	419104	202896
4736	368240	177792
4864	414080	202224
4992	354496	180992
5120	411168	202608
5248	381104	205200
5376	388224	181328
5504	349920	175536
5632	414144	209152
5760	369088	193056
5888	479664	269920
6016	487856	203296
6144	136896	35360
6272	68416	34128
6400	70544	35120
6528	67616	34688
6656	67936	33312
6784	67712	32928
6912	66336	33136
7040	66624	32544
7168	66736	33632
7296	68080	34240
7424	68064	33408
7552	69312	34720
7680	5429088	5392752
7808	6969888	6840992
7936	70048	35760
8064	68448	34928
8192	136608	67488
8448	132496	66336
8704	219232	116304
8960	11568	256
9216	128	128
9472	176	176
9728	208	208
9984	160	144
10240	1312	1312
10496	3504	3488
10752	4097136	4063040
11008	3104	3104
11264	1984	1984
11520	2000	1984
11776	2784	2784
12032	3904	3856
12288	2752	2736
12544	2864	2864
12800	1584	1584
13056	1664	1664
13312	1008	1008
13568	816	816
13824	928	912
14080	848	832
14336	528	528
14592	1008	1008
14848	1216	1216
15104	848	848
15360	1040	1040
15616	592	592
15872	624	608
16128	384	384
16384	224	224
16896	0	0
17408	0	0
17920	0	0
18432	0	0
18944	0	0
19456	0	0
19968	0	0
20480	0	0
20992	0	0
21504	0	0
22016	0	0
22528	0	0
23040	0	0
23552	0	0
24064	0	0
24576	0	0
25088	0	0
25600	0	0
26112	0	0
26624	0	0
27136	0	0
27648	0	0
28160	0	0
28672	0	0
29184	0	0
29696	0	0
30208	0	0
30720	0	0
31232	0	0
31744	0	0
32256	0	0
32768	0	0
33792	0	0
34816	0	0
35840	0	0
36864	0	0
37888	0	0
38912	0	0
39936	0	0
40960	0	0
41984	0	0
43008	0	0
44032	0	0
45056	0	0
46080	0	0
47104	0	0
48128	0	0
49152	0	0
50176	0	0
51200	0	0
52224	0	0
53248	0	0
54272	0	0
55296	0	0
56320	0	0
57344	0	0
58368	0	0
59392	0	0
60416	0	0
61440	0	0
62464	0	0
63488	0	0
64512	0	0
65536	0	0
67584	0	0
69632	0	0
71680	0	0
73728	0	0
75776	0	0
77824	0	0
79872	0	0
81920	0	0
83968	0	0
86016	0	0
88064	0	0
90112	0	0
92160	0	0
94208	0	0
96256	0	0
98304	0	0
100352	0	0
102400	0	0
104448	0	0
106496	0	0
108544	0	0
110592	0	0
112640	0	0
114688	0	0
116736	0	0
118784	0	0
120832	0	0
122880	0	0
124928	0	0
126976	0	0
129024	0	0
131072	0	0
135168	0	0
139264	0	0
143360	0	0
147456	0	0
151552	0	0
155648	0	0
159744	0	0
163840	0	0
167936	0	0
172032	0	0
176128	0	0
180224	0	0
184320	0	0
188416	0	0
192512	0	0
196608	0	0
200704	0	0
204800	0	0
208896	0	0
212992	0	0
217088	0	0
221184	0	0
225280	0	0
229376	0	0
233472	0	0
237568	0	0
241664	0	0
245760	0	0
249856	0	0
253952	0	0
258048	0	0
262144	0	0
270336	0	0
278528	0	0
286720	0	0
294912	0	0
303104	0	0
311296	0	0
319488	0	0
327680	0	0
335872	0	0
344064	0	0
352256	0	0
360448	0	0
368640	0	0
376832	0	0
385024	0	0
393216	0	0
401408	0	0
409600	16	16
417792	0	0
425984	0	0
434176	0	0
442368	0	0
450560	0	0
458752	0	0
466944	0	0
475136	0	0
483328	0	0
491520	0	0
499712	0	0
507904	0	0
516096	0	0
524288	0	0
540672	0	0
557056	0	0
573440	0	0
589824	0	0
606208	0	0
622592	0	0
638976	0	0
655360	0	0
671744	0	0
688128	0	0
704512	0	0
720896	0	0
737280	0	0
753664	0	0
770048	0	0
786432	0	0
802816	0	0
819200	0	0
835584	0	0
851968	0	0
868352	0	0
884736	0	0
901120	0	0
917504	0	0
933888	0	0
950272	0	0
966656	0	0
983040	0	0
999424	0	0
1015808	0	0
1032192	0	0
1048576	0	0
1081344	0	0
1114112	0	0
1146880	0	0
1179648	0	0
1212416	0	0
1245184	0	0
1277952	0	0
1310720	0	0
1343488	0	0
1376256	0	0
1409024	0	0
1441792	0	0
1474560	0	0
1507328	0	0
1540096	0	0
1572864	0	0
1605632	0	0
1638400	0	0
1671168	0	0
1703936	0	0
1736704	0	0
1769472	0	0
1802240	0	0
1835008	0	0
1867776	0	0
1900544	0	0
1933312	0	0
1966080	0	0
1998848	0	0
2031616	0	0
2064384	0	0
2097152	0	0
2162688	0	0
2228224	0	0
2293760	0	0
2359296	0	0
2424832	0	0
2490368	0	0
2555904	0	0
2621440	0	0
2686976	0	0
2752512	0	0
2818048	0	0
2883584	0	0
2949120	0	0
3014656	0	0
3080192	0	0
3145728	0	0
3211264	0	0
3276800	0	0
3342336	0	0
3407872	0	0
3473408	0	0
3538944	0	0
3604480	0	0
3670016	0	0
3735552	0	0
3801088	0	0
3866624	0	0
3932160	0	0
3997696	0	0
4063232	0	0
4128768	0	0
4194304	0	0
4325376	0	0
4456448	0	0
4587520	0	0
4718592	0	0
4849664	0	0
4980736	0	0
5111808	0	0
5242880	0	0
5373952	0	0
5505024	0	0
5636096	0	0
5767168	0	0
5898240	0	0
6029312	0	0
6160384	0	0
6291456	0	0
6422528	0	0
6553600	0	0
6684672	0	0
6815744	0	0
6946816	0	0
7077888	0	0
7208960	0	0
7340032	0	0
7471104	0	0
7602176	0	0
7733248	0	0
7864320	0	0
7995392	0	0
8126464	0	0
8257536	0	0
8388608	0	0
8650752	0	0
8912896	0	0
9175040	0	0
9437184	0	0
9699328	0	0
9961472	0	0
10223616	0	0
10485760	0	0
10747904	0	0
11010048	0	0
11272192	0	0
11534336	0	0
11796480	0	0
12058624	0	0
12320768	0	0
12582912	0	0
12845056	0	0
13107200	0	0
13369344	0	0
13631488	0	0
13893632	0	0
14155776	0	0
14417920	0	0
14680064	0	0
14942208	0	0
15204352	0	0
15466496	0	0
15728640	0	0
15990784	0	0
16252928	0	0
16515072	0	0
16777216	0	0
17301504	0	0
17825792	0	0
18350080	0	0
18874368	0	0
19398656	0	0
19922944	0	0
20447232	0	0
20971520	0	0
21495808	0	0
22020096	0	0
22544384	0	0
23068672	0	0
23592960	0	0
24117248	0	0
24641536	0	0
25165824	0	0
25690112	0	0
26214400	0	0
26738688	0	0
27262976	0	0
27787264	0	0
28311552	0	0
28835840	0	0
29360128	0	0
29884416	0	0
30408704	0	0
30932992	0	0
31457280	0	0
31981568	0	0
32505856	0	0
33030144	0	0
33554432	0	0
34603008	0	0
35651584	0	0
36700160	0	0
37748736	0	0
38797312	0	0
39845888	0	0
40894464	0	0
41943040	0	0
42991616	0	0
44040192	0	0
45088768	0	0
46137344	0	0
47185920	0	0
48234496	0	0
49283072	0	0
50331648	0	0
51380224	0	0
52428800	0	0
53477376	0	0
54525952	0	0
55574528	0	0
56623104	0	0
57671680	0	0
58720256	0	0
59768832	0	0
60817408	0	0
61865984	0	0
62914560	0	0
63963136	0	0
65011712	0	0
66060288	0	0
67108864	0	0
69206016	0	0
71303168	0	0
73400320	0	0
75497472	0	0
77594624	0	0
79691776	0	0
81788928	0	0
83886080	48	48
85983232	104320	104256
88080384	2848	2848
90177536	3024	3024
92274688	2864	2864
94371840	2912	2912
96468992	2832	2832
98566144	3344	3344
100663296	2864	2864
102760448	2832	2832
104857600	3216	3216
106954752	2848	2848
109051904	3136	3136
111149056	2800	2800
113246208	2992	2992
115343360	2736	2736
117440512	5632	5632
119537664	0	0
121634816	0	0
123731968	0	0
125829120	0	0
127926272	0	0
130023424	0	0
132120576	0	0
134217728	0	0
138412032	0	0
142606336	0	0
146800640	0	0
150994944	0	0
155189248	0	0
159383552	0	0
163577856	0	0
167772160	0	0
171966464	0	0
176160768	0	0
180355072	0	0
184549376	0	0
188743680	0	0
192937984	0	0
197132288	0	0
201326592	0	0
205520896	0	0
209715200	0	0
213909504	0	0
218103808	0	0
222298112	0	0
226492416	0	0
230686720	0	0
234881024	0	0
239075328	0	0
243269632	0	0
247463936	0	0
251658240	0	0
255852544	0	0
260046848	0	0
264241152	0	0
268435456	0	0
276824064	0	0
285212672	0	0
293601280	0	0
301989888	0	0
310378496	0	0
318767104	0	0
327155712	0	0
335544320	0	0
343932928	0	0
352321536	0	0
360710144	0	0
369098752	0	0
377487360	0	0
385875968	0	0
394264576	0	0
402653184	0	0
411041792	0	0
419430400	0	0
427819008	0	0
436207616	0	0
444596224	0	0
452984832	0	0
461373440	0	0
469762048	0	0
478150656	0	0
486539264	0	0
494927872	0	0
503316480	0	0
511705088	0	0
520093696	0	0
528482304	0	0
536870912	0	0
553648128	0	0
570425344	0	0
587202560	0	0
603979776	0	0
620756992	0	0
637534208	0	0
654311424	0	0
671088640	0	0
687865856	0	0
704643072	0	0
721420288	0	0
738197504	0	0
754974720	0	0
771751936	0	0
788529152	0	0
805306368	0	0
822083584	0	0
838860800	0	0
855638016	0	0
872415232	0	0
889192448	0	0
905969664	0	0
922746880	0	0
939524096	0	0
956301312	0	0
973078528	0	0
989855744	0	0
1006632960	0	0
1023410176	0	0
1040187392	0	0
1056964608	0	0
1073741824	0	0
1107296256	0	0
1140850688	0	0
1174405120	0	0
1207959552	0	0
1241513984	0	0
1275068416	0	0
1308622848	0	0
1342177280	0	0
1375731712	0	0
1409286144	0	0
1442840576	0	0
1476395008	0	0
1509949440	0	0
1543503872	0	0
1577058304	0	0
1610612736	0	0
1644167168	0	0
1677721600	0	0
1711276032	0	0
1744830464	0	0
1778384896	0	0
1811939328	0	0
1845493760	0	0
1879048192	0	0
1912602624	0	0
1946157056	0	0
1979711488	0	0
2013265920	0	0
2046820352	0	0
2080374784	0	0
2113929216	0	0
2147483648	0	0
2214592512	0	0
2281701376	0	0
2348810240	0	0
2415919104	0	0
2483027968	0	0
2550136832	0	0
2617245696	0	0
2684354560	0	0
2751463424	0	0
2818572288	0	0
2885681152	0	0
2952790016	0	0
3019898880	0	0
3087007744	0	0
3154116608	0	0
3221225472	0	0
3288334336	0	0
3355443200	0	0
3422552064	0	0
3489660928	0	0
3556769792	0	0
3623878656	0	0
3690987520	0	0
3758096384	0	0
3825205248	0	0
3892314112	0	0
3959422976	0	0
4026531840	0	0
4093640704	0	0
4160749568	0	0
4227858432	0	0
~~~~~~~~~~Reuse Distance Profiler output end~~~~~~~~~~

DRAM Statistics
 CHANNEL 0
 RQ ROW_BUFFER_HIT:          0  ROW_BUFFER_MISS:     155817
 DBUS AVG_CONGESTED_CYCLE:    3.67967
 WQ ROW_BUFFER_HIT:          2  ROW_BUFFER_MISS:       4392  FULL:          0


CPU 0 Branch Prediction Accuracy: 98.2333% MPKI: 3.41854 Average ROB Occupancy at Mispredict: 193.732
Branch type MPKI
BRANCH_DIRECT_JUMP: 0
BRANCH_INDIRECT: 0
BRANCH_CONDITIONAL: 3.41854
BRANCH_DIRECT_CALL: 0
BRANCH_INDIRECT_CALL: 0
BRANCH_RETURN: 0

