
*** ChampSim Multicore Out-of-Order Simulator ***

Warmup Instructions: 500000000
Simulation Instructions: 1500000000
Number of CPUs: 1
Off-chip DRAM Size: 4 GiB Channels: 1 Width: 64-bit Data Rate: 3200 MT/s

VirtualMemory physical capacity: 8588881920 num_ppages: 2096895
VirtualMemory page size: 4096 log2_page_size: 12

CPU 0 runs traces/641.leela_s-149B.champsimtrace.xz
CPU 0 Bimodal branch predictor
Basic BTB sets: 1024 ways: 8 indirect buffer size: 4096 RAS size: 64
Initializing LRU.
Initializing LRU.
Initializing LRU.
Initializing LRU.
Initializing rdLRU.
Initializing LRU.
Initializing LRU.
Heartbeat CPU 0 instructions: 10000002 cycles: 2527384 heartbeat IPC: 3.95666 cumulative IPC: 3.95666 (Simulation time: 0 hr 0 min 52 sec) 
Heartbeat CPU 0 instructions: 20000003 cycles: 5325348 heartbeat IPC: 3.57403 cumulative IPC: 3.75562 (Simulation time: 0 hr 1 min 55 sec) 
Heartbeat CPU 0 instructions: 30000000 cycles: 7913321 heartbeat IPC: 3.86403 cumulative IPC: 3.79108 (Simulation time: 0 hr 2 min 56 sec) 
Heartbeat CPU 0 instructions: 40000003 cycles: 10446563 heartbeat IPC: 3.94751 cumulative IPC: 3.82901 (Simulation time: 0 hr 3 min 49 sec) 
Heartbeat CPU 0 instructions: 50000002 cycles: 12981116 heartbeat IPC: 3.94547 cumulative IPC: 3.85175 (Simulation time: 0 hr 4 min 44 sec) 
Heartbeat CPU 0 instructions: 60000002 cycles: 15515218 heartbeat IPC: 3.94617 cumulative IPC: 3.86717 (Simulation time: 0 hr 5 min 40 sec) 
Heartbeat CPU 0 instructions: 70000001 cycles: 18047845 heartbeat IPC: 3.94847 cumulative IPC: 3.87858 (Simulation time: 0 hr 6 min 34 sec) 
Heartbeat CPU 0 instructions: 80000001 cycles: 20581758 heartbeat IPC: 3.94647 cumulative IPC: 3.88694 (Simulation time: 0 hr 7 min 31 sec) 
Heartbeat CPU 0 instructions: 90000003 cycles: 23113676 heartbeat IPC: 3.94958 cumulative IPC: 3.8938 (Simulation time: 0 hr 8 min 28 sec) 
Heartbeat CPU 0 instructions: 100000000 cycles: 25645632 heartbeat IPC: 3.94951 cumulative IPC: 3.8993 (Simulation time: 0 hr 9 min 25 sec) 
Heartbeat CPU 0 instructions: 110000002 cycles: 28178962 heartbeat IPC: 3.94737 cumulative IPC: 3.90362 (Simulation time: 0 hr 10 min 18 sec) 
Heartbeat CPU 0 instructions: 120000000 cycles: 30712216 heartbeat IPC: 3.94749 cumulative IPC: 3.90724 (Simulation time: 0 hr 11 min 13 sec) 
Heartbeat CPU 0 instructions: 130000001 cycles: 33244176 heartbeat IPC: 3.94951 cumulative IPC: 3.91046 (Simulation time: 0 hr 12 min 8 sec) 
Heartbeat CPU 0 instructions: 140000001 cycles: 35775490 heartbeat IPC: 3.95052 cumulative IPC: 3.91329 (Simulation time: 0 hr 12 min 51 sec) 
Heartbeat CPU 0 instructions: 150000000 cycles: 38308239 heartbeat IPC: 3.94828 cumulative IPC: 3.91561 (Simulation time: 0 hr 13 min 40 sec) 
Heartbeat CPU 0 instructions: 160000003 cycles: 40840861 heartbeat IPC: 3.94848 cumulative IPC: 3.91765 (Simulation time: 0 hr 14 min 29 sec) 
Heartbeat CPU 0 instructions: 170000000 cycles: 43372776 heartbeat IPC: 3.94958 cumulative IPC: 3.91951 (Simulation time: 0 hr 15 min 22 sec) 
Heartbeat CPU 0 instructions: 180000003 cycles: 45904690 heartbeat IPC: 3.94958 cumulative IPC: 3.92117 (Simulation time: 0 hr 16 min 20 sec) 
Heartbeat CPU 0 instructions: 190000002 cycles: 48435277 heartbeat IPC: 3.95165 cumulative IPC: 3.92276 (Simulation time: 0 hr 17 min 18 sec) 
Heartbeat CPU 0 instructions: 200000000 cycles: 50965894 heartbeat IPC: 3.9516 cumulative IPC: 3.92419 (Simulation time: 0 hr 18 min 14 sec) 
Heartbeat CPU 0 instructions: 210000002 cycles: 53497225 heartbeat IPC: 3.95049 cumulative IPC: 3.92544 (Simulation time: 0 hr 19 min 7 sec) 
Heartbeat CPU 0 instructions: 220000001 cycles: 56029805 heartbeat IPC: 3.94854 cumulative IPC: 3.92648 (Simulation time: 0 hr 19 min 56 sec) 
Heartbeat CPU 0 instructions: 230000003 cycles: 58560398 heartbeat IPC: 3.95164 cumulative IPC: 3.92757 (Simulation time: 0 hr 20 min 50 sec) 
Heartbeat CPU 0 instructions: 240000001 cycles: 61091655 heartbeat IPC: 3.95061 cumulative IPC: 3.92852 (Simulation time: 0 hr 21 min 41 sec) 
Heartbeat CPU 0 instructions: 250000000 cycles: 63624908 heartbeat IPC: 3.94749 cumulative IPC: 3.92928 (Simulation time: 0 hr 22 min 25 sec) 
Heartbeat CPU 0 instructions: 260000003 cycles: 66156831 heartbeat IPC: 3.94957 cumulative IPC: 3.93006 (Simulation time: 0 hr 23 min 16 sec) 
Heartbeat CPU 0 instructions: 270000002 cycles: 68687421 heartbeat IPC: 3.95165 cumulative IPC: 3.93085 (Simulation time: 0 hr 24 min 17 sec) 
Heartbeat CPU 0 instructions: 280000002 cycles: 71218820 heartbeat IPC: 3.95038 cumulative IPC: 3.93155 (Simulation time: 0 hr 25 min 12 sec) 
Heartbeat CPU 0 instructions: 290000000 cycles: 73750733 heartbeat IPC: 3.94958 cumulative IPC: 3.93216 (Simulation time: 0 hr 25 min 54 sec) 
Heartbeat CPU 0 instructions: 300000001 cycles: 76283320 heartbeat IPC: 3.94853 cumulative IPC: 3.93271 (Simulation time: 0 hr 26 min 40 sec) 
Heartbeat CPU 0 instructions: 310000003 cycles: 78814578 heartbeat IPC: 3.95061 cumulative IPC: 3.93328 (Simulation time: 0 hr 27 min 36 sec) 
Heartbeat CPU 0 instructions: 320000000 cycles: 81345836 heartbeat IPC: 3.9506 cumulative IPC: 3.93382 (Simulation time: 0 hr 28 min 35 sec) 
Heartbeat CPU 0 instructions: 330000002 cycles: 83877102 heartbeat IPC: 3.95059 cumulative IPC: 3.93433 (Simulation time: 0 hr 29 min 11 sec) 
Heartbeat CPU 0 instructions: 340000003 cycles: 86409066 heartbeat IPC: 3.9495 cumulative IPC: 3.93477 (Simulation time: 0 hr 29 min 55 sec) 
Heartbeat CPU 0 instructions: 350000000 cycles: 88940980 heartbeat IPC: 3.94958 cumulative IPC: 3.93519 (Simulation time: 0 hr 30 min 38 sec) 
Heartbeat CPU 0 instructions: 360000002 cycles: 91472231 heartbeat IPC: 3.95062 cumulative IPC: 3.93562 (Simulation time: 0 hr 31 min 30 sec) 
Heartbeat CPU 0 instructions: 370000000 cycles: 94003535 heartbeat IPC: 3.95053 cumulative IPC: 3.93602 (Simulation time: 0 hr 32 min 9 sec) 
Heartbeat CPU 0 instructions: 380000003 cycles: 96535456 heartbeat IPC: 3.94957 cumulative IPC: 3.93638 (Simulation time: 0 hr 32 min 52 sec) 
Heartbeat CPU 0 instructions: 390000001 cycles: 99066718 heartbeat IPC: 3.9506 cumulative IPC: 3.93674 (Simulation time: 0 hr 33 min 39 sec) 
Heartbeat CPU 0 instructions: 400000003 cycles: 101597317 heartbeat IPC: 3.95163 cumulative IPC: 3.93711 (Simulation time: 0 hr 34 min 33 sec) 
Heartbeat CPU 0 instructions: 410000001 cycles: 104129240 heartbeat IPC: 3.94957 cumulative IPC: 3.93741 (Simulation time: 0 hr 35 min 19 sec) 
Heartbeat CPU 0 instructions: 420000000 cycles: 106659840 heartbeat IPC: 3.95163 cumulative IPC: 3.93775 (Simulation time: 0 hr 36 min 14 sec) 
Heartbeat CPU 0 instructions: 430000001 cycles: 109189775 heartbeat IPC: 3.95267 cumulative IPC: 3.9381 (Simulation time: 0 hr 37 min 13 sec) 
Heartbeat CPU 0 instructions: 440000002 cycles: 111720376 heartbeat IPC: 3.95163 cumulative IPC: 3.9384 (Simulation time: 0 hr 38 min 10 sec) 
Heartbeat CPU 0 instructions: 450000001 cycles: 114283011 heartbeat IPC: 3.90223 cumulative IPC: 3.93759 (Simulation time: 0 hr 38 min 59 sec) 
Heartbeat CPU 0 instructions: 460000001 cycles: 116813615 heartbeat IPC: 3.95163 cumulative IPC: 3.9379 (Simulation time: 0 hr 39 min 52 sec) 
Heartbeat CPU 0 instructions: 470000001 cycles: 119346216 heartbeat IPC: 3.94851 cumulative IPC: 3.93812 (Simulation time: 0 hr 40 min 39 sec) 
Heartbeat CPU 0 instructions: 480000003 cycles: 121876819 heartbeat IPC: 3.95163 cumulative IPC: 3.9384 (Simulation time: 0 hr 41 min 31 sec) 
Heartbeat CPU 0 instructions: 490000000 cycles: 124408092 heartbeat IPC: 3.95058 cumulative IPC: 3.93865 (Simulation time: 0 hr 42 min 16 sec) 
Heartbeat CPU 0 instructions: 500000002 cycles: 126940688 heartbeat IPC: 3.94852 cumulative IPC: 3.93885 (Simulation time: 0 hr 43 min 9 sec) 

Warmup complete CPU 0 instructions: 500000002 cycles: 126940688 (Simulation time: 0 hr 43 min 9 sec) 

Heartbeat CPU 0 instructions: 510000000 cycles: 137287655 heartbeat IPC: 0.966467 cumulative IPC: 0.966467 (Simulation time: 0 hr 44 min 2 sec) 
Heartbeat CPU 0 instructions: 520000002 cycles: 147616044 heartbeat IPC: 0.968205 cumulative IPC: 0.967335 (Simulation time: 0 hr 44 min 56 sec) 
Heartbeat CPU 0 instructions: 530000001 cycles: 158068300 heartbeat IPC: 0.956731 cumulative IPC: 0.963775 (Simulation time: 0 hr 45 min 48 sec) 
Heartbeat CPU 0 instructions: 540000004 cycles: 168466425 heartbeat IPC: 0.961712 cumulative IPC: 0.963258 (Simulation time: 0 hr 46 min 49 sec) 
Heartbeat CPU 0 instructions: 550000002 cycles: 178828392 heartbeat IPC: 0.965068 cumulative IPC: 0.963619 (Simulation time: 0 hr 47 min 49 sec) 
Heartbeat CPU 0 instructions: 560000002 cycles: 189204989 heartbeat IPC: 0.963707 cumulative IPC: 0.963634 (Simulation time: 0 hr 48 min 45 sec) 
Heartbeat CPU 0 instructions: 570000000 cycles: 199529066 heartbeat IPC: 0.968609 cumulative IPC: 0.964342 (Simulation time: 0 hr 49 min 46 sec) 
Heartbeat CPU 0 instructions: 580000004 cycles: 209926572 heartbeat IPC: 0.961769 cumulative IPC: 0.964019 (Simulation time: 0 hr 50 min 49 sec) 
Heartbeat CPU 0 instructions: 590000001 cycles: 220288017 heartbeat IPC: 0.965116 cumulative IPC: 0.964141 (Simulation time: 0 hr 51 min 49 sec) 
Heartbeat CPU 0 instructions: 600000003 cycles: 230613880 heartbeat IPC: 0.968442 cumulative IPC: 0.96457 (Simulation time: 0 hr 52 min 37 sec) 
Heartbeat CPU 0 instructions: 610000004 cycles: 240854612 heartbeat IPC: 0.976493 cumulative IPC: 0.965641 (Simulation time: 0 hr 53 min 34 sec) 
Heartbeat CPU 0 instructions: 620000003 cycles: 251120029 heartbeat IPC: 0.974144 cumulative IPC: 0.966344 (Simulation time: 0 hr 54 min 30 sec) 
Heartbeat CPU 0 instructions: 630000002 cycles: 261171149 heartbeat IPC: 0.994914 cumulative IPC: 0.968484 (Simulation time: 0 hr 55 min 21 sec) 
Heartbeat CPU 0 instructions: 640000004 cycles: 271468903 heartbeat IPC: 0.971086 cumulative IPC: 0.968669 (Simulation time: 0 hr 56 min 10 sec) 
Heartbeat CPU 0 instructions: 650000000 cycles: 281791034 heartbeat IPC: 0.968792 cumulative IPC: 0.968677 (Simulation time: 0 hr 57 min 6 sec) 
Heartbeat CPU 0 instructions: 660000003 cycles: 292094127 heartbeat IPC: 0.970583 cumulative IPC: 0.968796 (Simulation time: 0 hr 57 min 54 sec) 
Heartbeat CPU 0 instructions: 670000000 cycles: 302446711 heartbeat IPC: 0.965942 cumulative IPC: 0.968628 (Simulation time: 0 hr 58 min 50 sec) 
Heartbeat CPU 0 instructions: 680000000 cycles: 312697827 heartbeat IPC: 0.975504 cumulative IPC: 0.969007 (Simulation time: 0 hr 59 min 45 sec) 
Heartbeat CPU 0 instructions: 690000000 cycles: 322958391 heartbeat IPC: 0.974605 cumulative IPC: 0.9693 (Simulation time: 1 hr 0 min 48 sec) 
Heartbeat CPU 0 instructions: 700000001 cycles: 333148504 heartbeat IPC: 0.981344 cumulative IPC: 0.969895 (Simulation time: 1 hr 1 min 51 sec) 
Heartbeat CPU 0 instructions: 710000000 cycles: 343351570 heartbeat IPC: 0.980097 cumulative IPC: 0.970376 (Simulation time: 1 hr 2 min 45 sec) 
Heartbeat CPU 0 instructions: 720000000 cycles: 353529952 heartbeat IPC: 0.982474 cumulative IPC: 0.97092 (Simulation time: 1 hr 3 min 48 sec) 
Heartbeat CPU 0 instructions: 730000001 cycles: 363602296 heartbeat IPC: 0.992818 cumulative IPC: 0.971852 (Simulation time: 1 hr 4 min 31 sec) 
Heartbeat CPU 0 instructions: 740000001 cycles: 373698511 heartbeat IPC: 0.99047 cumulative IPC: 0.972614 (Simulation time: 1 hr 5 min 16 sec) 
Heartbeat CPU 0 instructions: 750000003 cycles: 383752092 heartbeat IPC: 0.994671 cumulative IPC: 0.973477 (Simulation time: 1 hr 6 min 12 sec) 
Heartbeat CPU 0 instructions: 760000000 cycles: 393812122 heartbeat IPC: 0.994033 cumulative IPC: 0.974252 (Simulation time: 1 hr 7 min 9 sec) 
Heartbeat CPU 0 instructions: 770000002 cycles: 403951375 heartbeat IPC: 0.986266 cumulative IPC: 0.974692 (Simulation time: 1 hr 8 min 12 sec) 
Heartbeat CPU 0 instructions: 780000000 cycles: 414100566 heartbeat IPC: 0.9853 cumulative IPC: 0.975067 (Simulation time: 1 hr 8 min 59 sec) 
Heartbeat CPU 0 instructions: 790000001 cycles: 424282848 heartbeat IPC: 0.982098 cumulative IPC: 0.975307 (Simulation time: 1 hr 9 min 45 sec) 
Heartbeat CPU 0 instructions: 800000004 cycles: 434324551 heartbeat IPC: 0.995847 cumulative IPC: 0.975978 (Simulation time: 1 hr 10 min 38 sec) 
Heartbeat CPU 0 instructions: 810000000 cycles: 444561205 heartbeat IPC: 0.976881 cumulative IPC: 0.976007 (Simulation time: 1 hr 11 min 33 sec) 
Heartbeat CPU 0 instructions: 820000001 cycles: 454855307 heartbeat IPC: 0.97143 cumulative IPC: 0.975864 (Simulation time: 1 hr 12 min 30 sec) 
Heartbeat CPU 0 instructions: 830000002 cycles: 465283525 heartbeat IPC: 0.958937 cumulative IPC: 0.975342 (Simulation time: 1 hr 13 min 33 sec) 
Heartbeat CPU 0 instructions: 840000001 cycles: 475734953 heartbeat IPC: 0.956807 cumulative IPC: 0.974787 (Simulation time: 1 hr 14 min 32 sec) 
Heartbeat CPU 0 instructions: 850000002 cycles: 486142357 heartbeat IPC: 0.960855 cumulative IPC: 0.974383 (Simulation time: 1 hr 15 min 33 sec) 
Heartbeat CPU 0 instructions: 860000003 cycles: 496563555 heartbeat IPC: 0.959583 cumulative IPC: 0.973966 (Simulation time: 1 hr 16 min 34 sec) 
Heartbeat CPU 0 instructions: 870000002 cycles: 506947419 heartbeat IPC: 0.963033 cumulative IPC: 0.973667 (Simulation time: 1 hr 17 min 28 sec) 
Heartbeat CPU 0 instructions: 880000002 cycles: 517720663 heartbeat IPC: 0.928226 cumulative IPC: 0.972414 (Simulation time: 1 hr 18 min 31 sec) 
Heartbeat CPU 0 instructions: 890000001 cycles: 527796018 heartbeat IPC: 0.992521 cumulative IPC: 0.97292 (Simulation time: 1 hr 19 min 30 sec) 
Heartbeat CPU 0 instructions: 900000000 cycles: 538070924 heartbeat IPC: 0.973245 cumulative IPC: 0.972928 (Simulation time: 1 hr 20 min 30 sec) 
Heartbeat CPU 0 instructions: 910000001 cycles: 548208927 heartbeat IPC: 0.986388 cumulative IPC: 0.973252 (Simulation time: 1 hr 21 min 32 sec) 
Heartbeat CPU 0 instructions: 920000001 cycles: 558310607 heartbeat IPC: 0.989934 cumulative IPC: 0.973642 (Simulation time: 1 hr 22 min 22 sec) 
Heartbeat CPU 0 instructions: 930000000 cycles: 568424617 heartbeat IPC: 0.988727 cumulative IPC: 0.973988 (Simulation time: 1 hr 23 min 3 sec) 
Heartbeat CPU 0 instructions: 940000000 cycles: 578534214 heartbeat IPC: 0.989159 cumulative IPC: 0.974328 (Simulation time: 1 hr 24 min 3 sec) 
Heartbeat CPU 0 instructions: 950000003 cycles: 588810476 heartbeat IPC: 0.973117 cumulative IPC: 0.974301 (Simulation time: 1 hr 25 min 7 sec) 
Heartbeat CPU 0 instructions: 960000000 cycles: 598825194 heartbeat IPC: 0.99853 cumulative IPC: 0.974815 (Simulation time: 1 hr 26 min 10 sec) 
Heartbeat CPU 0 instructions: 970000004 cycles: 609061260 heartbeat IPC: 0.976938 cumulative IPC: 0.97486 (Simulation time: 1 hr 27 min 5 sec) 
Heartbeat CPU 0 instructions: 980000003 cycles: 619262192 heartbeat IPC: 0.980303 cumulative IPC: 0.974973 (Simulation time: 1 hr 28 min 2 sec) 
Heartbeat CPU 0 instructions: 990000002 cycles: 629526807 heartbeat IPC: 0.974221 cumulative IPC: 0.974957 (Simulation time: 1 hr 28 min 58 sec) 
Heartbeat CPU 0 instructions: 1000000003 cycles: 639751053 heartbeat IPC: 0.978067 cumulative IPC: 0.975019 (Simulation time: 1 hr 29 min 59 sec) 
Heartbeat CPU 0 instructions: 1010000000 cycles: 649904256 heartbeat IPC: 0.984911 cumulative IPC: 0.975211 (Simulation time: 1 hr 30 min 51 sec) 
Heartbeat CPU 0 instructions: 1020000002 cycles: 660219792 heartbeat IPC: 0.969412 cumulative IPC: 0.975099 (Simulation time: 1 hr 31 min 46 sec) 
Heartbeat CPU 0 instructions: 1030000000 cycles: 670669376 heartbeat IPC: 0.956976 cumulative IPC: 0.974751 (Simulation time: 1 hr 32 min 48 sec) 
Heartbeat CPU 0 instructions: 1040000001 cycles: 681038019 heartbeat IPC: 0.964446 cumulative IPC: 0.974558 (Simulation time: 1 hr 33 min 42 sec) 
Heartbeat CPU 0 instructions: 1050000001 cycles: 691373166 heartbeat IPC: 0.967572 cumulative IPC: 0.97443 (Simulation time: 1 hr 34 min 32 sec) 
Heartbeat CPU 0 instructions: 1060000000 cycles: 701763406 heartbeat IPC: 0.962442 cumulative IPC: 0.974213 (Simulation time: 1 hr 35 min 31 sec) 
Heartbeat CPU 0 instructions: 1070000004 cycles: 712089348 heartbeat IPC: 0.968435 cumulative IPC: 0.974111 (Simulation time: 1 hr 36 min 36 sec) 
Heartbeat CPU 0 instructions: 1080000000 cycles: 722426894 heartbeat IPC: 0.967347 cumulative IPC: 0.973994 (Simulation time: 1 hr 37 min 40 sec) 
Heartbeat CPU 0 instructions: 1090000000 cycles: 732831127 heartbeat IPC: 0.961147 cumulative IPC: 0.973773 (Simulation time: 1 hr 38 min 45 sec) 
Heartbeat CPU 0 instructions: 1100000000 cycles: 743234938 heartbeat IPC: 0.961186 cumulative IPC: 0.973561 (Simulation time: 1 hr 39 min 49 sec) 
Heartbeat CPU 0 instructions: 1110000001 cycles: 753709204 heartbeat IPC: 0.954721 cumulative IPC: 0.973246 (Simulation time: 1 hr 40 min 53 sec) 
Heartbeat CPU 0 instructions: 1120000000 cycles: 764186237 heartbeat IPC: 0.954469 cumulative IPC: 0.972937 (Simulation time: 1 hr 41 min 57 sec) 
Heartbeat CPU 0 instructions: 1130000001 cycles: 774569538 heartbeat IPC: 0.963085 cumulative IPC: 0.972779 (Simulation time: 1 hr 42 min 56 sec) 
Heartbeat CPU 0 instructions: 1140000001 cycles: 784993426 heartbeat IPC: 0.959335 cumulative IPC: 0.972566 (Simulation time: 1 hr 43 min 45 sec) 
Heartbeat CPU 0 instructions: 1150000004 cycles: 795305744 heartbeat IPC: 0.969714 cumulative IPC: 0.972522 (Simulation time: 1 hr 44 min 36 sec) 
Heartbeat CPU 0 instructions: 1160000001 cycles: 805616648 heartbeat IPC: 0.969847 cumulative IPC: 0.972482 (Simulation time: 1 hr 45 min 17 sec) 
Heartbeat CPU 0 instructions: 1170000000 cycles: 815856318 heartbeat IPC: 0.976594 cumulative IPC: 0.972543 (Simulation time: 1 hr 46 min 16 sec) 
Heartbeat CPU 0 instructions: 1180000002 cycles: 826213383 heartbeat IPC: 0.965525 cumulative IPC: 0.972439 (Simulation time: 1 hr 47 min 12 sec) 
Heartbeat CPU 0 instructions: 1190000004 cycles: 836428320 heartbeat IPC: 0.978959 cumulative IPC: 0.972533 (Simulation time: 1 hr 48 min 15 sec) 
Heartbeat CPU 0 instructions: 1200000001 cycles: 846585147 heartbeat IPC: 0.984559 cumulative IPC: 0.972703 (Simulation time: 1 hr 49 min 16 sec) 
Heartbeat CPU 0 instructions: 1210000002 cycles: 856770122 heartbeat IPC: 0.981839 cumulative IPC: 0.97283 (Simulation time: 1 hr 49 min 55 sec) 
Heartbeat CPU 0 instructions: 1220000003 cycles: 866884331 heartbeat IPC: 0.988708 cumulative IPC: 0.973047 (Simulation time: 1 hr 50 min 42 sec) 
Heartbeat CPU 0 instructions: 1230000003 cycles: 876980004 heartbeat IPC: 0.990523 cumulative IPC: 0.973282 (Simulation time: 1 hr 51 min 30 sec) 
Heartbeat CPU 0 instructions: 1240000000 cycles: 887054609 heartbeat IPC: 0.992594 cumulative IPC: 0.973538 (Simulation time: 1 hr 52 min 7 sec) 
Heartbeat CPU 0 instructions: 1250000000 cycles: 897084609 heartbeat IPC: 0.997009 cumulative IPC: 0.973844 (Simulation time: 1 hr 52 min 47 sec) 
Heartbeat CPU 0 instructions: 1260000004 cycles: 907182869 heartbeat IPC: 0.99027 cumulative IPC: 0.974057 (Simulation time: 1 hr 53 min 46 sec) 
Heartbeat CPU 0 instructions: 1270000004 cycles: 917292979 heartbeat IPC: 0.989109 cumulative IPC: 0.974249 (Simulation time: 1 hr 54 min 45 sec) 
Heartbeat CPU 0 instructions: 1280000003 cycles: 927296760 heartbeat IPC: 0.999622 cumulative IPC: 0.974566 (Simulation time: 1 hr 55 min 42 sec) 
Heartbeat CPU 0 instructions: 1290000002 cycles: 937276658 heartbeat IPC: 1.00201 cumulative IPC: 0.974904 (Simulation time: 1 hr 56 min 32 sec) 
Heartbeat CPU 0 instructions: 1300000002 cycles: 947384568 heartbeat IPC: 0.989324 cumulative IPC: 0.975082 (Simulation time: 1 hr 57 min 22 sec) 
Heartbeat CPU 0 instructions: 1310000002 cycles: 957556960 heartbeat IPC: 0.983053 cumulative IPC: 0.97518 (Simulation time: 1 hr 58 min 16 sec) 
Heartbeat CPU 0 instructions: 1320000002 cycles: 968299530 heartbeat IPC: 0.930876 cumulative IPC: 0.974614 (Simulation time: 1 hr 59 min 15 sec) 
Heartbeat CPU 0 instructions: 1330000000 cycles: 978501854 heartbeat IPC: 0.980169 cumulative IPC: 0.97468 (Simulation time: 2 hr 0 min 7 sec) 
Heartbeat CPU 0 instructions: 1340000002 cycles: 988656074 heartbeat IPC: 0.984812 cumulative IPC: 0.9748 (Simulation time: 2 hr 1 min 4 sec) 
Heartbeat CPU 0 instructions: 1350000000 cycles: 998782901 heartbeat IPC: 0.987476 cumulative IPC: 0.974947 (Simulation time: 2 hr 1 min 47 sec) 
Heartbeat CPU 0 instructions: 1360000000 cycles: 1008964259 heartbeat IPC: 0.982187 cumulative IPC: 0.975031 (Simulation time: 2 hr 2 min 26 sec) 
Heartbeat CPU 0 instructions: 1370000002 cycles: 1019071063 heartbeat IPC: 0.989433 cumulative IPC: 0.975194 (Simulation time: 2 hr 3 min 23 sec) 
Heartbeat CPU 0 instructions: 1380000002 cycles: 1029184442 heartbeat IPC: 0.988789 cumulative IPC: 0.975346 (Simulation time: 2 hr 4 min 18 sec) 
Heartbeat CPU 0 instructions: 1390000003 cycles: 1039292553 heartbeat IPC: 0.989305 cumulative IPC: 0.975501 (Simulation time: 2 hr 5 min 17 sec) 
Heartbeat CPU 0 instructions: 1400000000 cycles: 1049370177 heartbeat IPC: 0.992297 cumulative IPC: 0.975684 (Simulation time: 2 hr 6 min 9 sec) 
Heartbeat CPU 0 instructions: 1410000000 cycles: 1059459031 heartbeat IPC: 0.991193 cumulative IPC: 0.975852 (Simulation time: 2 hr 7 min 12 sec) 
Heartbeat CPU 0 instructions: 1420000004 cycles: 1069572487 heartbeat IPC: 0.988782 cumulative IPC: 0.975991 (Simulation time: 2 hr 7 min 56 sec) 
Heartbeat CPU 0 instructions: 1430000000 cycles: 1079724026 heartbeat IPC: 0.985072 cumulative IPC: 0.976088 (Simulation time: 2 hr 8 min 58 sec) 
Heartbeat CPU 0 instructions: 1440000003 cycles: 1089809215 heartbeat IPC: 0.991553 cumulative IPC: 0.97625 (Simulation time: 2 hr 9 min 44 sec) 
Heartbeat CPU 0 instructions: 1450000002 cycles: 1099841134 heartbeat IPC: 0.996818 cumulative IPC: 0.976462 (Simulation time: 2 hr 10 min 30 sec) 
Heartbeat CPU 0 instructions: 1460000004 cycles: 1110018940 heartbeat IPC: 0.98253 cumulative IPC: 0.976525 (Simulation time: 2 hr 11 min 29 sec) 
Heartbeat CPU 0 instructions: 1470000002 cycles: 1120098131 heartbeat IPC: 0.992143 cumulative IPC: 0.976683 (Simulation time: 2 hr 12 min 26 sec) 
Heartbeat CPU 0 instructions: 1480000004 cycles: 1130497618 heartbeat IPC: 0.961586 cumulative IPC: 0.976527 (Simulation time: 2 hr 13 min 29 sec) 
Heartbeat CPU 0 instructions: 1490000001 cycles: 1140860283 heartbeat IPC: 0.965002 cumulative IPC: 0.976409 (Simulation time: 2 hr 14 min 13 sec) 
Heartbeat CPU 0 instructions: 1500000000 cycles: 1151036072 heartbeat IPC: 0.982725 cumulative IPC: 0.976472 (Simulation time: 2 hr 15 min 0 sec) 
Heartbeat CPU 0 instructions: 1510000002 cycles: 1161459347 heartbeat IPC: 0.959392 cumulative IPC: 0.976299 (Simulation time: 2 hr 16 min 0 sec) 
Heartbeat CPU 0 instructions: 1520000003 cycles: 1171960078 heartbeat IPC: 0.952315 cumulative IPC: 0.976058 (Simulation time: 2 hr 16 min 54 sec) 
Heartbeat CPU 0 instructions: 1530000000 cycles: 1182076015 heartbeat IPC: 0.988539 cumulative IPC: 0.976178 (Simulation time: 2 hr 17 min 33 sec) 
Heartbeat CPU 0 instructions: 1540000000 cycles: 1192107788 heartbeat IPC: 0.996833 cumulative IPC: 0.976373 (Simulation time: 2 hr 18 min 25 sec) 
Heartbeat CPU 0 instructions: 1550000000 cycles: 1202165464 heartbeat IPC: 0.994265 cumulative IPC: 0.97654 (Simulation time: 2 hr 19 min 11 sec) 
Heartbeat CPU 0 instructions: 1560000002 cycles: 1212191055 heartbeat IPC: 0.997448 cumulative IPC: 0.976733 (Simulation time: 2 hr 20 min 0 sec) 
Heartbeat CPU 0 instructions: 1570000000 cycles: 1222176417 heartbeat IPC: 1.00147 cumulative IPC: 0.976959 (Simulation time: 2 hr 20 min 46 sec) 
Heartbeat CPU 0 instructions: 1580000000 cycles: 1232215939 heartbeat IPC: 0.996063 cumulative IPC: 0.977132 (Simulation time: 2 hr 21 min 29 sec) 
Heartbeat CPU 0 instructions: 1590000000 cycles: 1242453525 heartbeat IPC: 0.976793 cumulative IPC: 0.977129 (Simulation time: 2 hr 22 min 16 sec) 
Heartbeat CPU 0 instructions: 1600000000 cycles: 1252819276 heartbeat IPC: 0.964715 cumulative IPC: 0.977015 (Simulation time: 2 hr 23 min 9 sec) 
Heartbeat CPU 0 instructions: 1610000000 cycles: 1263166237 heartbeat IPC: 0.966467 cumulative IPC: 0.976919 (Simulation time: 2 hr 23 min 53 sec) 
Heartbeat CPU 0 instructions: 1620000000 cycles: 1273508122 heartbeat IPC: 0.966942 cumulative IPC: 0.976829 (Simulation time: 2 hr 24 min 45 sec) 
Heartbeat CPU 0 instructions: 1630000004 cycles: 1283794552 heartbeat IPC: 0.972155 cumulative IPC: 0.976787 (Simulation time: 2 hr 25 min 45 sec) 
Heartbeat CPU 0 instructions: 1640000003 cycles: 1294061028 heartbeat IPC: 0.974044 cumulative IPC: 0.976763 (Simulation time: 2 hr 26 min 45 sec) 
Heartbeat CPU 0 instructions: 1650000002 cycles: 1304366238 heartbeat IPC: 0.970383 cumulative IPC: 0.976707 (Simulation time: 2 hr 27 min 26 sec) 
Heartbeat CPU 0 instructions: 1660000002 cycles: 1314654151 heartbeat IPC: 0.972014 cumulative IPC: 0.976667 (Simulation time: 2 hr 28 min 23 sec) 
Heartbeat CPU 0 instructions: 1670000004 cycles: 1324891322 heartbeat IPC: 0.976833 cumulative IPC: 0.976668 (Simulation time: 2 hr 29 min 27 sec) 
Heartbeat CPU 0 instructions: 1680000000 cycles: 1335173441 heartbeat IPC: 0.972562 cumulative IPC: 0.976633 (Simulation time: 2 hr 30 min 7 sec) 
Heartbeat CPU 0 instructions: 1690000001 cycles: 1345458500 heartbeat IPC: 0.972284 cumulative IPC: 0.976596 (Simulation time: 2 hr 30 min 44 sec) 
Heartbeat CPU 0 instructions: 1700000000 cycles: 1355679405 heartbeat IPC: 0.978387 cumulative IPC: 0.976611 (Simulation time: 2 hr 31 min 21 sec) 
Heartbeat CPU 0 instructions: 1710000004 cycles: 1365902635 heartbeat IPC: 0.978165 cumulative IPC: 0.976624 (Simulation time: 2 hr 31 min 57 sec) 
Heartbeat CPU 0 instructions: 1720000004 cycles: 1376013435 heartbeat IPC: 0.989041 cumulative IPC: 0.976725 (Simulation time: 2 hr 32 min 34 sec) 
Heartbeat CPU 0 instructions: 1730000001 cycles: 1386159842 heartbeat IPC: 0.98557 cumulative IPC: 0.976796 (Simulation time: 2 hr 33 min 10 sec) 
Heartbeat CPU 0 instructions: 1740000000 cycles: 1396297975 heartbeat IPC: 0.986375 cumulative IPC: 0.976872 (Simulation time: 2 hr 33 min 47 sec) 
Heartbeat CPU 0 instructions: 1750000000 cycles: 1406546930 heartbeat IPC: 0.975709 cumulative IPC: 0.976863 (Simulation time: 2 hr 34 min 23 sec) 
Heartbeat CPU 0 instructions: 1760000003 cycles: 1417308495 heartbeat IPC: 0.929233 cumulative IPC: 0.976466 (Simulation time: 2 hr 35 min 1 sec) 
Heartbeat CPU 0 instructions: 1770000000 cycles: 1427551405 heartbeat IPC: 0.976285 cumulative IPC: 0.976464 (Simulation time: 2 hr 35 min 37 sec) 
Heartbeat CPU 0 instructions: 1780000002 cycles: 1437791108 heartbeat IPC: 0.976591 cumulative IPC: 0.976465 (Simulation time: 2 hr 36 min 13 sec) 
Heartbeat CPU 0 instructions: 1790000003 cycles: 1448097392 heartbeat IPC: 0.970282 cumulative IPC: 0.976417 (Simulation time: 2 hr 36 min 49 sec) 
Heartbeat CPU 0 instructions: 1800000003 cycles: 1458387424 heartbeat IPC: 0.971814 cumulative IPC: 0.976382 (Simulation time: 2 hr 37 min 25 sec) 
Heartbeat CPU 0 instructions: 1810000000 cycles: 1468573314 heartbeat IPC: 0.98175 cumulative IPC: 0.976422 (Simulation time: 2 hr 38 min 1 sec) 
Heartbeat CPU 0 instructions: 1820000003 cycles: 1478721485 heartbeat IPC: 0.9854 cumulative IPC: 0.97649 (Simulation time: 2 hr 38 min 37 sec) 
Heartbeat CPU 0 instructions: 1830000001 cycles: 1488967538 heartbeat IPC: 0.975985 cumulative IPC: 0.976486 (Simulation time: 2 hr 39 min 14 sec) 
Heartbeat CPU 0 instructions: 1840000002 cycles: 1499292058 heartbeat IPC: 0.968568 cumulative IPC: 0.976426 (Simulation time: 2 hr 39 min 49 sec) 
Heartbeat CPU 0 instructions: 1850000001 cycles: 1509543519 heartbeat IPC: 0.975471 cumulative IPC: 0.976419 (Simulation time: 2 hr 40 min 26 sec) 
Heartbeat CPU 0 instructions: 1860000003 cycles: 1519805214 heartbeat IPC: 0.974498 cumulative IPC: 0.976405 (Simulation time: 2 hr 41 min 1 sec) 
Heartbeat CPU 0 instructions: 1870000000 cycles: 1530039766 heartbeat IPC: 0.977082 cumulative IPC: 0.97641 (Simulation time: 2 hr 41 min 47 sec) 
Heartbeat CPU 0 instructions: 1880000004 cycles: 1540242736 heartbeat IPC: 0.980107 cumulative IPC: 0.976437 (Simulation time: 2 hr 42 min 44 sec) 
Heartbeat CPU 0 instructions: 1890000002 cycles: 1550449568 heartbeat IPC: 0.979736 cumulative IPC: 0.97646 (Simulation time: 2 hr 43 min 19 sec) 
Heartbeat CPU 0 instructions: 1900000003 cycles: 1560639235 heartbeat IPC: 0.981386 cumulative IPC: 0.976495 (Simulation time: 2 hr 43 min 55 sec) 
Heartbeat CPU 0 instructions: 1910000003 cycles: 1570930182 heartbeat IPC: 0.971728 cumulative IPC: 0.976461 (Simulation time: 2 hr 44 min 31 sec) 
Heartbeat CPU 0 instructions: 1920000003 cycles: 1581147748 heartbeat IPC: 0.978707 cumulative IPC: 0.976477 (Simulation time: 2 hr 45 min 7 sec) 
Heartbeat CPU 0 instructions: 1930000001 cycles: 1591415365 heartbeat IPC: 0.973936 cumulative IPC: 0.976459 (Simulation time: 2 hr 45 min 43 sec) 
Heartbeat CPU 0 instructions: 1940000002 cycles: 1601609264 heartbeat IPC: 0.980979 cumulative IPC: 0.976491 (Simulation time: 2 hr 46 min 19 sec) 
Heartbeat CPU 0 instructions: 1950000004 cycles: 1611807917 heartbeat IPC: 0.980522 cumulative IPC: 0.976518 (Simulation time: 2 hr 46 min 55 sec) 
Heartbeat CPU 0 instructions: 1960000000 cycles: 1621903257 heartbeat IPC: 0.990556 cumulative IPC: 0.976613 (Simulation time: 2 hr 47 min 30 sec) 
Heartbeat CPU 0 instructions: 1970000000 cycles: 1632059257 heartbeat IPC: 0.98464 cumulative IPC: 0.976667 (Simulation time: 2 hr 48 min 5 sec) 
Heartbeat CPU 0 instructions: 1980000003 cycles: 1642163895 heartbeat IPC: 0.989645 cumulative IPC: 0.976754 (Simulation time: 2 hr 48 min 41 sec) 
Heartbeat CPU 0 instructions: 1990000004 cycles: 1652230444 heartbeat IPC: 0.993389 cumulative IPC: 0.976864 (Simulation time: 2 hr 49 min 16 sec) 
*** Reached end of trace: traces/641.leela_s-149B.champsimtrace.xz
Heartbeat CPU 0 instructions: 2000000002 cycles: 1662279661 heartbeat IPC: 0.995102 cumulative IPC: 0.976983 (Simulation time: 2 hr 49 min 52 sec) 
Finished CPU 0 instructions: 1500000000 cycles: 1535338973 cumulative IPC: 0.976983 (Simulation time: 2 hr 49 min 52 sec) 

ChampSim completed all CPUs

Region of Interest Statistics

CPU 0 cumulative IPC: 0.976983 instructions: 1500000000 cycles: 1535338973
cpu0_DTLB TOTAL     ACCESS:  290661161  HIT:  289832036  MISS:     829125
cpu0_DTLB LOAD      ACCESS:  197530020  HIT:  196757454  MISS:     772566
cpu0_DTLB RFO       ACCESS:   93131141  HIT:   93074582  MISS:      56559
cpu0_DTLB PREFETCH  ACCESS:          0  HIT:          0  MISS:          0
cpu0_DTLB WRITEBACK ACCESS:          0  HIT:          0  MISS:          0
cpu0_DTLB TRANSLATION ACCESS:          0  HIT:          0  MISS:          0
cpu0_DTLB PREFETCH  REQUESTED:          0  ISSUED:          0  USEFUL:          0  USELESS:          0
cpu0_DTLB AVERAGE MISS LATENCY: 9.05661 cycles
cpu0_ITLB TOTAL     ACCESS:  151051638  HIT:  151051524  MISS:        114
cpu0_ITLB LOAD      ACCESS:  151051638  HIT:  151051524  MISS:        114
cpu0_ITLB RFO       ACCESS:          0  HIT:          0  MISS:          0
cpu0_ITLB PREFETCH  ACCESS:          0  HIT:          0  MISS:          0
cpu0_ITLB WRITEBACK ACCESS:          0  HIT:          0  MISS:          0
cpu0_ITLB TRANSLATION ACCESS:          0  HIT:          0  MISS:          0
cpu0_ITLB PREFETCH  REQUESTED:          0  ISSUED:          0  USEFUL:          0  USELESS:          0
cpu0_ITLB AVERAGE MISS LATENCY: 9 cycles
cpu0_L1I TOTAL     ACCESS:  152811705  HIT:  152645044  MISS:     166661
cpu0_L1I LOAD      ACCESS:  152811705  HIT:  152645044  MISS:     166661
cpu0_L1I RFO       ACCESS:          0  HIT:          0  MISS:          0
cpu0_L1I PREFETCH  ACCESS:          0  HIT:          0  MISS:          0
cpu0_L1I WRITEBACK ACCESS:          0  HIT:          0  MISS:          0
cpu0_L1I TRANSLATION ACCESS:          0  HIT:          0  MISS:          0
cpu0_L1I PREFETCH  REQUESTED:          0  ISSUED:          0  USEFUL:          0  USELESS:          0
cpu0_L1I AVERAGE MISS LATENCY: 11.2977 cycles
cpu0_STLB TOTAL     ACCESS:     829239  HIT:     828907  MISS:        332
cpu0_STLB LOAD      ACCESS:     772680  HIT:     772400  MISS:        280
cpu0_STLB RFO       ACCESS:      56559  HIT:      56507  MISS:         52
cpu0_STLB PREFETCH  ACCESS:          0  HIT:          0  MISS:          0
cpu0_STLB WRITEBACK ACCESS:          0  HIT:          0  MISS:          0
cpu0_STLB TRANSLATION ACCESS:          0  HIT:          0  MISS:          0
cpu0_STLB PREFETCH  REQUESTED:          0  ISSUED:          0  USEFUL:          0  USELESS:          0
cpu0_STLB AVERAGE MISS LATENCY: 140.84 cycles
cpu0_L1D TOTAL     ACCESS:  386857886  HIT:  382881111  MISS:    3976775
cpu0_L1D LOAD      ACCESS:  219461161  HIT:  216254416  MISS:    3206745
cpu0_L1D RFO       ACCESS:  167396394  HIT:  166626671  MISS:     769723
cpu0_L1D PREFETCH  ACCESS:          0  HIT:          0  MISS:          0
cpu0_L1D WRITEBACK ACCESS:          0  HIT:          0  MISS:          0
cpu0_L1D TRANSLATION ACCESS:        331  HIT:         24  MISS:        307
cpu0_L1D PREFETCH  REQUESTED:          0  ISSUED:          0  USEFUL:          0  USELESS:          0
cpu0_L1D AVERAGE MISS LATENCY: 11.6013 cycles
cpu0_L2C TOTAL     ACCESS:    5476253  HIT:    5410293  MISS:      65960
cpu0_L2C LOAD      ACCESS:    3373268  HIT:    3334516  MISS:      38752
cpu0_L2C RFO       ACCESS:     766947  HIT:     739937  MISS:      27010
cpu0_L2C PREFETCH  ACCESS:          0  HIT:          0  MISS:          0
cpu0_L2C WRITEBACK ACCESS:    1335731  HIT:    1335549  MISS:        182
cpu0_L2C TRANSLATION ACCESS:        307  HIT:        291  MISS:         16
cpu0_L2C PREFETCH  REQUESTED:          0  ISSUED:          0  USEFUL:          0  USELESS:          0
cpu0_L2C AVERAGE MISS LATENCY: 36.9811 cycles
LLC TOTAL     ACCESS:     101245  HIT:      94462  MISS:       6783
LLC LOAD      ACCESS:      38752  HIT:      35285  MISS:       3467
LLC RFO       ACCESS:      27010  HIT:      23700  MISS:       3310
LLC PREFETCH  ACCESS:          0  HIT:          0  MISS:          0
LLC WRITEBACK ACCESS:      35467  HIT:      35463  MISS:          4
LLC TRANSLATION ACCESS:         16  HIT:         14  MISS:          2
LLC PREFETCH  REQUESTED:          0  ISSUED:          0  USEFUL:          0  USELESS:          0
LLC AVERAGE MISS LATENCY: 155.966 cycles
~~~~~~~~~~Reuse Distance Profiler output~~~~~~~~~~
0	120623632	18310704
1	52746048	21094112
2	34225184	15826768
3	23304640	15291296
4	19973520	13418736
5	16655920	11145008
6	13166720	8823376
7	10846128	7301744
8	9536064	6864368
9	9266944	6906352
10	8414992	6085264
11	8436816	6117184
12	8464912	6578704
13	6600208	4966688
14	6008784	4691040
15	5017072	3885232
16	4776752	3849072
17	4963808	3585344
18	4307744	3291360
19	4191744	2957344
20	3534480	2692912
21	3309248	2609936
22	3163504	2537248
23	2999408	2273936
24	2850176	2128816
25	2617552	2033456
26	2508080	1887584
27	2143792	1746400
28	2056624	1673792
29	1928032	1589328
30	1874912	1534144
31	1986512	1564592
32	1884688	1505632
33	1689040	1387632
34	1788336	1328544
35	1374800	1169088
36	1222400	1047696
37	1149408	982544
38	1052096	895056
39	1077184	842880
40	1110352	867904
41	1041696	904032
42	1091072	945840
43	1040032	909456
44	962976	837008
45	962784	855904
46	970608	859792
47	909248	800048
48	938032	836704
49	941936	832240
50	914416	808720
51	964752	843216
52	1001728	871648
53	991040	854000
54	1044272	915456
55	998848	863616
56	1002768	856656
57	1029568	875808
58	998160	844944
59	969872	811680
60	980576	825200
61	978160	812752
62	985968	828800
63	1086688	919728
64	2317664	1967472
66	2052768	1713776
68	1867776	1531680
70	1691680	1372944
72	1546320	1237904
74	1496688	1205392
76	1474512	1169392
78	1402384	1093600
80	1289280	996464
82	1200256	935376
84	1130944	884544
86	1064768	828800
88	1005584	770320
90	934256	720768
92	888944	694944
94	864496	675376
96	806896	634880
98	745136	592096
100	685456	549344
102	630000	509232
104	603408	490368
106	571616	471488
108	540192	457920
110	516256	441088
112	505952	439504
114	498304	436816
116	472240	414224
118	449792	394240
120	429376	377120
122	428448	379088
124	386512	339376
126	378320	333648
128	748224	662864
132	708848	633328
136	651632	585536
140	636336	572656
144	606368	547952
148	575632	519104
152	552128	490960
156	509392	451696
160	470768	417216
164	452704	399856
168	427088	373664
172	398576	348288
176	399920	343872
180	386608	332752
184	374320	322848
188	354864	305088
192	344544	296352
196	338208	292608
200	317440	276208
204	313376	276224
208	301904	264896
212	288816	252192
216	285504	249552
220	277664	244000
224	268832	234544
228	266576	234576
232	274592	240528
236	253824	219648
240	253472	222784
244	253328	220464
248	248048	212224
252	270512	229568
256	484512	419296
264	462544	404736
272	475696	412992
280	486096	407440
288	440272	371040
296	403696	353184
304	392672	338336
312	392400	338352
320	383856	326176
328	383232	313280
336	373760	310960
344	372064	316880
352	347072	294016
360	338192	283872
368	326256	271104
376	304352	252256
384	299904	244736
392	288944	239248
400	281104	230704
408	268928	220192
416	258624	204576
424	246192	196144
432	243216	192224
440	234400	184576
448	224864	176784
456	230528	182096
464	227184	180704
472	232656	187712
480	218576	173248
488	210320	163008
496	207696	160896
504	210384	161856
512	420048	324512
528	396896	304608
544	384544	297184
560	367248	289696
576	354400	281296
592	354448	277232
608	319648	251312
624	304624	241296
640	289184	225568
656	264704	206224
672	248144	193952
688	227840	181184
704	214576	170048
720	207504	164944
736	193504	153344
752	187872	149040
768	170320	136896
784	167808	135536
800	149520	120944
816	146400	117600
832	134624	107232
848	130752	102464
864	113648	92544
880	114128	92144
896	103168	83536
912	97200	79808
928	91952	76672
944	91008	74864
960	90208	73632
976	85760	71632
992	88112	72512
1008	78208	63888
1024	154960	125728
1056	144960	115456
1088	137904	110512
1120	142032	115552
1152	130032	104080
1184	124080	97824
1216	121872	96160
1248	119056	93792
1280	110112	85840
1312	101360	78720
1344	101072	76720
1376	95344	72272
1408	88512	68576
1440	84000	64512
1472	77136	57568
1504	77520	59328
1536	72176	56880
1568	66960	51744
1600	64192	48544
1632	61504	46416
1664	57344	43264
1696	56384	43584
1728	52112	39232
1760	54752	43632
1792	53808	42080
1824	53552	42048
1856	47696	35328
1888	47744	35760
1920	48304	35632
1952	53280	37360
1984	62432	44912
2016	64976	43248
2048	137312	95104
2112	132544	98128
2176	136928	105968
2240	104016	82160
2304	101712	81264
2368	91776	67248
2432	102976	79360
2496	149600	129168
2560	176336	160512
2624	181136	166112
2688	164496	143184
2752	95024	74816
2816	54592	35248
2880	54384	31664
2944	57184	38208
3008	51136	37936
3072	48384	34192
3136	61552	47856
3200	74304	60064
3264	63744	48800
3328	56688	40464
3392	83296	68448
3456	136256	124176
3520	149792	139760
3584	124704	112528
3648	82288	68640
3712	45456	33344
3776	41568	28704
3840	48032	34048
3904	58160	42224
3968	68000	54432
4032	90992	80272
4096	237472	216000
4224	178288	155776
4352	78416	51184
4480	65136	38208
4608	111248	84480
4736	216192	194800
4864	186064	165456
4992	70160	50288
5120	51984	29440
5248	101328	83472
5376	176928	158912
5504	147888	131056
5632	64560	47264
5760	34592	19216
5888	42736	22672
6016	105728	91520
6144	152224	141248
6272	72800	61952
6400	29728	18144
6528	33216	22848
6656	77984	67648
6784	97760	88768
6912	51600	44176
7040	26800	17648
7168	24208	16208
7296	57488	49616
7424	75056	68384
7552	35712	29232
7680	19632	12448
7808	21360	16032
7936	43024	38160
8064	44528	40512
8192	38480	29488
8448	41632	32704
8704	36480	29744
8960	23296	16816
9216	21488	15568
9472	19632	14496
9728	17616	13600
9984	17312	12896
10240	15520	12144
10496	13808	10592
10752	13088	10240
11008	13264	10512
11264	12368	9632
11520	12368	9568
11776	11616	9136
12032	11232	9008
12288	10320	8160
12544	10064	8016
12800	9520	7488
13056	9216	7472
13312	9120	7264
13568	8448	6592
13824	8976	7216
14080	8384	6512
14336	8640	6848
14592	8064	6256
14848	7616	6096
15104	7568	6016
15360	7888	6496
15616	7632	6352
15872	6576	5472
16128	6704	5472
16384	13216	10800
16896	12304	10192
17408	12096	10080
17920	11792	9680
18432	11536	9248
18944	10832	8944
19456	10848	8848
19968	10944	9312
20480	9856	8144
20992	10352	8496
21504	9696	8000
22016	9472	7760
22528	9520	8064
23040	10096	8304
23552	12096	10224
24064	12016	10224
24576	13520	11968
25088	15008	13552
25600	12592	10896
26112	15248	13632
26624	12144	10480
27136	11776	9920
27648	11424	9712
28160	11776	10016
28672	12384	10352
29184	12544	10112
29696	10880	9200
30208	12736	10944
30720	15184	13184
31232	15312	13280
31744	16112	13792
32256	15680	13392
32768	31728	27024
33792	33392	29248
34816	36848	30448
35840	47728	32816
36864	49840	41952
37888	55568	48176
38912	68304	59744
39936	81728	72704
40960	100688	88688
41984	124928	110080
43008	147632	129872
44032	176400	152976
45056	215152	184624
46080	231696	196784
47104	258880	220144
48128	289648	244000
49152	307856	258304
50176	323520	270256
51200	333680	277888
52224	333856	276208
53248	343008	278144
54272	346592	279856
55296	325680	261552
56320	296368	237600
57344	291664	230880
58368	278944	221328
59392	237440	188400
60416	223408	174448
61440	197920	152176
62464	170272	130544
63488	143664	110432
64512	125504	96896
65536	187888	143024
67584	122032	93632
69632	88416	66480
71680	49616	38800
73728	30304	23824
75776	17024	14160
77824	12896	11040
79872	9632	8496
81920	6912	6368
83968	6624	6352
86016	7216	7024
88064	7392	7328
90112	6784	6752
92160	7664	7568
94208	8416	8256
96256	8832	8736
98304	9344	9120
100352	11776	10160
102400	12432	11168
104448	11392	11168
106496	11600	11424
108544	12624	12448
110592	11632	11280
112640	11168	10944
114688	11712	11392
116736	9632	9328
118784	10304	10064
120832	10000	9808
122880	7792	7632
124928	13760	10656
126976	6752	6624
129024	6752	6640
131072	11504	11440
135168	9440	9296
139264	9024	8912
143360	9600	9472
147456	9456	9264
151552	11504	11296
155648	11264	11152
159744	12464	12240
163840	12688	12240
167936	15696	12976
172032	12592	12128
176128	11920	11712
180224	12496	12288
184320	8768	8608
188416	9328	8048
192512	12128	9152
196608	7648	7472
200704	7584	7584
204800	7136	7008
208896	7856	7648
212992	7760	7520
217088	8352	8096
221184	8624	8432
225280	9104	9024
229376	8576	8448
233472	8768	8560
237568	7376	7248
241664	6672	6528
245760	6128	6080
249856	5248	5200
253952	5408	5360
258048	5600	5440
262144	11168	11056
270336	11696	11536
278528	12688	12480
286720	12512	12400
294912	10752	10624
303104	8880	8704
311296	9088	8976
319488	8368	8288
327680	9456	9360
335872	10160	10016
344064	8368	8288
352256	8320	8224
360448	7920	7840
368640	6464	6400
376832	6848	6800
385024	6928	6832
393216	7344	7216
401408	6400	6304
409600	6368	6288
417792	5952	5888
425984	6096	6032
434176	6320	6240
442368	7072	7024
450560	7392	6144
458752	5792	5712
466944	5520	5440
475136	5984	5856
483328	4928	4896
491520	4800	4768
499712	4976	4800
507904	4544	4496
516096	4864	4752
524288	9472	9408
540672	8720	8624
557056	8080	7984
573440	7296	7216
589824	6592	6480
606208	7312	7264
622592	6944	6816
638976	6544	6416
655360	6320	6224
671744	5968	5952
688128	6464	6448
704512	5520	5488
720896	6320	6272
737280	5520	5520
753664	4784	4784
770048	5424	5376
786432	4928	4912
802816	4832	4800
819200	4896	4880
835584	3680	3664
851968	4464	4464
868352	3952	3952
884736	4160	4160
901120	3424	3376
917504	3504	3488
933888	3968	3936
950272	3392	3376
966656	3616	3536
983040	3568	3568
999424	3120	3088
1015808	2832	2816
1032192	3200	3184
1048576	5824	5808
1081344	5952	5888
1114112	5200	5152
1146880	5232	5216
1179648	4528	4528
1212416	4944	4944
1245184	4528	4528
1277952	4048	4032
1310720	4256	4208
1343488	3616	3600
1376256	4000	3936
1409024	3696	3696
1441792	3408	3392
1474560	3568	3536
1507328	3312	3264
1540096	3616	3600
1572864	2928	2912
1605632	2976	2976
1638400	2960	2928
1671168	2592	2560
1703936	3232	3168
1736704	2624	2608
1769472	2528	2528
1802240	2528	2528
1835008	2688	2672
1867776	2528	2528
1900544	1872	1872
1933312	1392	1392
1966080	2016	1968
1998848	2320	2288
2031616	1888	1872
2064384	1648	1632
2097152	3776	3760
2162688	3408	3392
2228224	3472	3424
2293760	2992	2944
2359296	2208	2208
2424832	2944	2928
2490368	2832	2752
2555904	2640	2624
2621440	2704	2704
2686976	2256	2256
2752512	2336	2336
2818048	1920	1888
2883584	2272	2272
2949120	2256	2256
3014656	1824	1824
3080192	2048	1952
3145728	1824	1824
3211264	1920	1904
3276800	1616	1552
3342336	1712	1696
3407872	2496	2480
3473408	3152	2992
3538944	2816	2800
3604480	3072	3008
3670016	2656	2560
3735552	2832	2816
3801088	2416	2368
3866624	2576	2480
3932160	2896	2800
3997696	2560	2416
4063232	1088	1040
4128768	928	912
4194304	2304	2208
4325376	7328	4752
4456448	1920	1840
4587520	1968	1968
4718592	1680	1552
4849664	1520	1488
4980736	1936	1936
5111808	1120	1104
5242880	1344	1344
5373952	1376	1376
5505024	1568	1488
5636096	1024	1024
5767168	1232	1232
5898240	784	768
6029312	1584	1520
6160384	928	928
6291456	1056	1040
6422528	976	960
6553600	880	864
6684672	928	928
6815744	848	848
6946816	704	704
7077888	592	560
7208960	832	832
7340032	368	368
7471104	656	656
7602176	656	656
7733248	544	544
7864320	624	624
7995392	400	400
8126464	640	576
8257536	544	544
8388608	944	944
8650752	1152	1152
8912896	1024	1024
9175040	704	704
9437184	752	736
9699328	656	656
9961472	1024	992
10223616	1056	1056
10485760	528	528
10747904	704	704
11010048	544	512
11272192	592	592
11534336	416	416
11796480	560	544
12058624	368	368
12320768	752	752
12582912	448	400
12845056	432	432
13107200	336	320
13369344	288	288
13631488	448	448
13893632	448	448
14155776	384	384
14417920	560	544
14680064	368	368
14942208	384	384
15204352	240	240
15466496	336	336
15728640	672	672
15990784	272	272
16252928	224	224
16515072	320	288
16777216	1456	1440
17301504	512	480
17825792	544	528
18350080	320	320
18874368	512	400
19398656	592	592
19922944	464	464
20447232	384	384
20971520	336	336
21495808	368	368
22020096	320	320
22544384	448	448
23068672	208	208
23592960	256	240
24117248	512	112
24641536	176	176
25165824	192	192
25690112	192	192
26214400	256	192
26738688	128	128
27262976	448	352
27787264	160	160
28311552	480	464
28835840	96	96
29360128	224	176
29884416	128	128
30408704	80	80
30932992	192	128
31457280	160	144
31981568	160	160
32505856	480	464
33030144	464	416
33554432	288	272
34603008	176	176
35651584	192	176
36700160	208	208
37748736	208	208
38797312	112	112
39845888	256	256
40894464	96	96
41943040	256	240
42991616	688	112
44040192	128	128
45088768	1072	528
46137344	272	240
47185920	448	416
48234496	176	128
49283072	208	208
50331648	224	224
51380224	48	48
52428800	96	96
53477376	432	432
54525952	288	288
55574528	208	208
56623104	160	160
57671680	128	128
58720256	176	128
59768832	112	112
60817408	160	160
61865984	48	48
62914560	304	224
63963136	32	32
65011712	176	32
66060288	16	16
67108864	416	416
69206016	160	160
71303168	112	112
73400320	48	32
75497472	80	64
77594624	112	112
79691776	304	176
81788928	32	32
83886080	144	144
85983232	64	32
88080384	208	144
90177536	112	112
92274688	160	160
94371840	80	48
96468992	128	16
98566144	48	48
100663296	16	16
102760448	32	32
104857600	80	80
106954752	6512	3424
109051904	80	80
111149056	21040	5744
113246208	9152	2864
115343360	48	48
117440512	96	96
119537664	144	48
121634816	144	48
123731968	48	48
125829120	16	16
127926272	144	144
130023424	0	0
132120576	128	48
134217728	48	32
138412032	64	16
142606336	96	0
146800640	48	16
150994944	16	0
155189248	128	64
159383552	80	0
163577856	32	32
167772160	64	64
171966464	128	64
176160768	80	16
180355072	96	16
184549376	80	16
188743680	96	32
192937984	240	0
197132288	80	16
201326592	64	16
205520896	0	0
209715200	48	0
213909504	256	16
218103808	112	16
222298112	64	16
226492416	64	16
230686720	192	16
234881024	0	0
239075328	80	16
243269632	0	0
247463936	64	0
251658240	32	0
255852544	32	16
260046848	96	0
264241152	0	0
268435456	160	0
276824064	160	16
285212672	80	16
293601280	128	0
301989888	64	0
310378496	128	0
318767104	128	0
327155712	976	16
335544320	16	16
343932928	80	0
352321536	176	32
360710144	64	0
369098752	0	0
377487360	64	0
385875968	32	0
394264576	512	0
402653184	32	0
411041792	64	0
419430400	80	0
427819008	32	0
436207616	64	0
444596224	160	0
452984832	144	0
461373440	32	0
469762048	32	0
478150656	128	0
486539264	0	0
494927872	0	0
503316480	0	0
511705088	0	0
520093696	0	0
528482304	0	0
536870912	0	0
553648128	0	0
570425344	0	0
587202560	0	0
603979776	0	0
620756992	0	0
637534208	0	0
654311424	0	0
671088640	0	0
687865856	0	0
704643072	0	0
721420288	0	0
738197504	0	0
754974720	0	0
771751936	0	0
788529152	0	0
805306368	0	0
822083584	0	0
838860800	0	0
855638016	0	0
872415232	0	0
889192448	0	0
905969664	0	0
922746880	0	0
939524096	0	0
956301312	0	0
973078528	0	0
989855744	0	0
1006632960	0	0
1023410176	0	0
1040187392	0	0
1056964608	0	0
1073741824	0	0
1107296256	0	0
1140850688	0	0
1174405120	0	0
1207959552	0	0
1241513984	0	0
1275068416	0	0
1308622848	0	0
1342177280	0	0
1375731712	0	0
1409286144	0	0
1442840576	0	0
1476395008	0	0
1509949440	0	0
1543503872	0	0
1577058304	0	0
1610612736	0	0
1644167168	0	0
1677721600	0	0
1711276032	0	0
1744830464	0	0
1778384896	0	0
1811939328	0	0
1845493760	0	0
1879048192	0	0
1912602624	0	0
1946157056	0	0
1979711488	0	0
2013265920	0	0
2046820352	0	0
2080374784	0	0
2113929216	0	0
2147483648	0	0
2214592512	0	0
2281701376	0	0
2348810240	0	0
2415919104	0	0
2483027968	0	0
2550136832	0	0
2617245696	0	0
2684354560	0	0
2751463424	0	0
2818572288	0	0
2885681152	0	0
2952790016	0	0
3019898880	0	0
3087007744	0	0
3154116608	0	0
3221225472	0	0
3288334336	0	0
3355443200	0	0
3422552064	0	0
3489660928	0	0
3556769792	0	0
3623878656	0	0
3690987520	0	0
3758096384	0	0
3825205248	0	0
3892314112	0	0
3959422976	0	0
4026531840	0	0
4093640704	0	0
4160749568	0	0
4227858432	0	0
~~~~~~~~~~Reuse Distance Profiler output end~~~~~~~~~~

DRAM Statistics
 CHANNEL 0
 RQ ROW_BUFFER_HIT:        485  ROW_BUFFER_MISS:       6294
 DBUS AVG_CONGESTED_CYCLE:    3.98786
 WQ ROW_BUFFER_HIT:        924  ROW_BUFFER_MISS:       3462  FULL:          0


CPU 0 Branch Prediction Accuracy: 86.1203% MPKI: 22.9588 Average ROB Occupancy at Mispredict: 15.5736
Branch type MPKI
BRANCH_DIRECT_JUMP: 0
BRANCH_INDIRECT: 0.000806
BRANCH_CONDITIONAL: 22.9579
BRANCH_DIRECT_CALL: 0
BRANCH_INDIRECT_CALL: 4.6e-05
BRANCH_RETURN: 4.6e-05

