
*** ChampSim Multicore Out-of-Order Simulator ***

Warmup Instructions: 500000000
Simulation Instructions: 1500000000
Number of CPUs: 1
Off-chip DRAM Size: 4 GiB Channels: 1 Width: 64-bit Data Rate: 3200 MT/s

VirtualMemory physical capacity: 8588881920 num_ppages: 2096895
VirtualMemory page size: 4096 log2_page_size: 12

CPU 0 runs traces/641.leela_s-800B.champsimtrace.xz
CPU 0 Bimodal branch predictor
Basic BTB sets: 1024 ways: 8 indirect buffer size: 4096 RAS size: 64
Initializing LRU.
Initializing LRU.
Initializing LRU.
Initializing LRU.
Initializing rdLRU.
Initializing LRU.
Initializing LRU.
Heartbeat CPU 0 instructions: 10000002 cycles: 2508751 heartbeat IPC: 3.98605 cumulative IPC: 3.98605 (Simulation time: 0 hr 0 min 51 sec) 
Heartbeat CPU 0 instructions: 20000003 cycles: 5017397 heartbeat IPC: 3.98621 cumulative IPC: 3.98613 (Simulation time: 0 hr 1 min 47 sec) 
Heartbeat CPU 0 instructions: 30000002 cycles: 7524829 heartbeat IPC: 3.98814 cumulative IPC: 3.9868 (Simulation time: 0 hr 2 min 40 sec) 
Heartbeat CPU 0 instructions: 40000002 cycles: 10033468 heartbeat IPC: 3.98623 cumulative IPC: 3.98666 (Simulation time: 0 hr 3 min 32 sec) 
Heartbeat CPU 0 instructions: 50000002 cycles: 12541442 heartbeat IPC: 3.98728 cumulative IPC: 3.98678 (Simulation time: 0 hr 4 min 29 sec) 
Heartbeat CPU 0 instructions: 60000001 cycles: 15049510 heartbeat IPC: 3.98713 cumulative IPC: 3.98684 (Simulation time: 0 hr 5 min 12 sec) 
Heartbeat CPU 0 instructions: 70000000 cycles: 17558149 heartbeat IPC: 3.98622 cumulative IPC: 3.98675 (Simulation time: 0 hr 5 min 59 sec) 
Heartbeat CPU 0 instructions: 80000000 cycles: 20066192 heartbeat IPC: 3.98717 cumulative IPC: 3.98681 (Simulation time: 0 hr 6 min 52 sec) 
Heartbeat CPU 0 instructions: 90000003 cycles: 22574209 heartbeat IPC: 3.98722 cumulative IPC: 3.98685 (Simulation time: 0 hr 7 min 48 sec) 
Heartbeat CPU 0 instructions: 100000002 cycles: 25082194 heartbeat IPC: 3.98726 cumulative IPC: 3.98689 (Simulation time: 0 hr 8 min 40 sec) 
Heartbeat CPU 0 instructions: 110000001 cycles: 27589700 heartbeat IPC: 3.98803 cumulative IPC: 3.987 (Simulation time: 0 hr 9 min 19 sec) 
Heartbeat CPU 0 instructions: 120000002 cycles: 30260234 heartbeat IPC: 3.74457 cumulative IPC: 3.9656 (Simulation time: 0 hr 10 min 13 sec) 
Heartbeat CPU 0 instructions: 130000001 cycles: 32767556 heartbeat IPC: 3.98832 cumulative IPC: 3.96734 (Simulation time: 0 hr 10 min 59 sec) 
Heartbeat CPU 0 instructions: 140000000 cycles: 35275529 heartbeat IPC: 3.98728 cumulative IPC: 3.96876 (Simulation time: 0 hr 11 min 46 sec) 
Heartbeat CPU 0 instructions: 150000002 cycles: 37783503 heartbeat IPC: 3.98728 cumulative IPC: 3.96999 (Simulation time: 0 hr 12 min 37 sec) 
Heartbeat CPU 0 instructions: 160000001 cycles: 40291584 heartbeat IPC: 3.98711 cumulative IPC: 3.97105 (Simulation time: 0 hr 13 min 31 sec) 
Heartbeat CPU 0 instructions: 170000002 cycles: 42799873 heartbeat IPC: 3.98678 cumulative IPC: 3.97197 (Simulation time: 0 hr 14 min 11 sec) 
Heartbeat CPU 0 instructions: 180000000 cycles: 45308558 heartbeat IPC: 3.98615 cumulative IPC: 3.97276 (Simulation time: 0 hr 14 min 56 sec) 
Heartbeat CPU 0 instructions: 190000002 cycles: 47815915 heartbeat IPC: 3.98826 cumulative IPC: 3.97357 (Simulation time: 0 hr 15 min 45 sec) 
Heartbeat CPU 0 instructions: 200000002 cycles: 50323920 heartbeat IPC: 3.98723 cumulative IPC: 3.97425 (Simulation time: 0 hr 16 min 40 sec) 
Heartbeat CPU 0 instructions: 210000002 cycles: 52832083 heartbeat IPC: 3.98698 cumulative IPC: 3.97486 (Simulation time: 0 hr 17 min 35 sec) 
Heartbeat CPU 0 instructions: 220000001 cycles: 55340130 heartbeat IPC: 3.98717 cumulative IPC: 3.97542 (Simulation time: 0 hr 18 min 26 sec) 
Heartbeat CPU 0 instructions: 230000000 cycles: 57848196 heartbeat IPC: 3.98714 cumulative IPC: 3.97592 (Simulation time: 0 hr 19 min 18 sec) 
Heartbeat CPU 0 instructions: 240000001 cycles: 60356196 heartbeat IPC: 3.98724 cumulative IPC: 3.97639 (Simulation time: 0 hr 20 min 7 sec) 
Heartbeat CPU 0 instructions: 250000000 cycles: 62864193 heartbeat IPC: 3.98725 cumulative IPC: 3.97683 (Simulation time: 0 hr 20 min 50 sec) 
Heartbeat CPU 0 instructions: 260000003 cycles: 65372167 heartbeat IPC: 3.98728 cumulative IPC: 3.97723 (Simulation time: 0 hr 21 min 38 sec) 
Heartbeat CPU 0 instructions: 270000001 cycles: 67880146 heartbeat IPC: 3.98727 cumulative IPC: 3.9776 (Simulation time: 0 hr 22 min 30 sec) 
Heartbeat CPU 0 instructions: 280000002 cycles: 70387485 heartbeat IPC: 3.98829 cumulative IPC: 3.97798 (Simulation time: 0 hr 23 min 29 sec) 
Heartbeat CPU 0 instructions: 290000002 cycles: 72895473 heartbeat IPC: 3.98726 cumulative IPC: 3.9783 (Simulation time: 0 hr 24 min 28 sec) 
Heartbeat CPU 0 instructions: 300000001 cycles: 75403455 heartbeat IPC: 3.98727 cumulative IPC: 3.9786 (Simulation time: 0 hr 25 min 23 sec) 
Heartbeat CPU 0 instructions: 310000000 cycles: 77911649 heartbeat IPC: 3.98693 cumulative IPC: 3.97887 (Simulation time: 0 hr 26 min 18 sec) 
Heartbeat CPU 0 instructions: 320000000 cycles: 80419726 heartbeat IPC: 3.98712 cumulative IPC: 3.97912 (Simulation time: 0 hr 27 min 0 sec) 
Heartbeat CPU 0 instructions: 330000002 cycles: 82928372 heartbeat IPC: 3.98621 cumulative IPC: 3.97934 (Simulation time: 0 hr 27 min 53 sec) 
Heartbeat CPU 0 instructions: 340000003 cycles: 85435844 heartbeat IPC: 3.98808 cumulative IPC: 3.97959 (Simulation time: 0 hr 28 min 45 sec) 
Heartbeat CPU 0 instructions: 350000000 cycles: 87943830 heartbeat IPC: 3.98726 cumulative IPC: 3.97981 (Simulation time: 0 hr 29 min 24 sec) 
Heartbeat CPU 0 instructions: 360000000 cycles: 90452599 heartbeat IPC: 3.98602 cumulative IPC: 3.97999 (Simulation time: 0 hr 30 min 5 sec) 
Heartbeat CPU 0 instructions: 370000002 cycles: 92959959 heartbeat IPC: 3.98826 cumulative IPC: 3.98021 (Simulation time: 0 hr 30 min 58 sec) 
Heartbeat CPU 0 instructions: 380000002 cycles: 95468688 heartbeat IPC: 3.98608 cumulative IPC: 3.98036 (Simulation time: 0 hr 31 min 56 sec) 
Heartbeat CPU 0 instructions: 390000000 cycles: 97976693 heartbeat IPC: 3.98723 cumulative IPC: 3.98054 (Simulation time: 0 hr 32 min 42 sec) 
Heartbeat CPU 0 instructions: 400000003 cycles: 100484795 heartbeat IPC: 3.98708 cumulative IPC: 3.9807 (Simulation time: 0 hr 33 min 17 sec) 
Heartbeat CPU 0 instructions: 410000000 cycles: 102992137 heartbeat IPC: 3.98829 cumulative IPC: 3.98089 (Simulation time: 0 hr 33 min 55 sec) 
Heartbeat CPU 0 instructions: 420000003 cycles: 105500142 heartbeat IPC: 3.98723 cumulative IPC: 3.98104 (Simulation time: 0 hr 34 min 38 sec) 
Heartbeat CPU 0 instructions: 430000003 cycles: 108008303 heartbeat IPC: 3.98698 cumulative IPC: 3.98118 (Simulation time: 0 hr 35 min 30 sec) 
Heartbeat CPU 0 instructions: 440000003 cycles: 110516460 heartbeat IPC: 3.98699 cumulative IPC: 3.98131 (Simulation time: 0 hr 36 min 26 sec) 
Heartbeat CPU 0 instructions: 450000003 cycles: 113024530 heartbeat IPC: 3.98713 cumulative IPC: 3.98144 (Simulation time: 0 hr 37 min 16 sec) 
Heartbeat CPU 0 instructions: 460000002 cycles: 115531955 heartbeat IPC: 3.98815 cumulative IPC: 3.98158 (Simulation time: 0 hr 38 min 6 sec) 
Heartbeat CPU 0 instructions: 470000000 cycles: 118039928 heartbeat IPC: 3.98728 cumulative IPC: 3.9817 (Simulation time: 0 hr 39 min 0 sec) 
Heartbeat CPU 0 instructions: 480000001 cycles: 120547247 heartbeat IPC: 3.98832 cumulative IPC: 3.98184 (Simulation time: 0 hr 39 min 53 sec) 
Heartbeat CPU 0 instructions: 490000003 cycles: 123055222 heartbeat IPC: 3.98728 cumulative IPC: 3.98195 (Simulation time: 0 hr 40 min 42 sec) 
Heartbeat CPU 0 instructions: 500000001 cycles: 125563196 heartbeat IPC: 3.98728 cumulative IPC: 3.98206 (Simulation time: 0 hr 41 min 36 sec) 

Warmup complete CPU 0 instructions: 500000001 cycles: 125563196 (Simulation time: 0 hr 41 min 36 sec) 

Heartbeat CPU 0 instructions: 510000004 cycles: 135875772 heartbeat IPC: 0.96969 cumulative IPC: 0.96969 (Simulation time: 0 hr 42 min 35 sec) 
Heartbeat CPU 0 instructions: 520000000 cycles: 146264707 heartbeat IPC: 0.962562 cumulative IPC: 0.966113 (Simulation time: 0 hr 43 min 36 sec) 
Heartbeat CPU 0 instructions: 530000002 cycles: 156602032 heartbeat IPC: 0.967368 cumulative IPC: 0.966531 (Simulation time: 0 hr 44 min 35 sec) 
Heartbeat CPU 0 instructions: 540000001 cycles: 166914610 heartbeat IPC: 0.96969 cumulative IPC: 0.967319 (Simulation time: 0 hr 45 min 23 sec) 
Heartbeat CPU 0 instructions: 550000001 cycles: 177188493 heartbeat IPC: 0.973342 cumulative IPC: 0.968517 (Simulation time: 0 hr 46 min 4 sec) 
Heartbeat CPU 0 instructions: 560000002 cycles: 187502459 heartbeat IPC: 0.969559 cumulative IPC: 0.968691 (Simulation time: 0 hr 47 min 0 sec) 
Heartbeat CPU 0 instructions: 570000004 cycles: 197803624 heartbeat IPC: 0.970764 cumulative IPC: 0.968987 (Simulation time: 0 hr 48 min 0 sec) 
Heartbeat CPU 0 instructions: 580000003 cycles: 208015850 heartbeat IPC: 0.979218 cumulative IPC: 0.970254 (Simulation time: 0 hr 48 min 58 sec) 
Heartbeat CPU 0 instructions: 590000001 cycles: 218253728 heartbeat IPC: 0.976765 cumulative IPC: 0.970973 (Simulation time: 0 hr 49 min 45 sec) 
Heartbeat CPU 0 instructions: 600000002 cycles: 228475924 heartbeat IPC: 0.978263 cumulative IPC: 0.971697 (Simulation time: 0 hr 50 min 44 sec) 
Heartbeat CPU 0 instructions: 610000002 cycles: 238779590 heartbeat IPC: 0.970528 cumulative IPC: 0.971591 (Simulation time: 0 hr 51 min 38 sec) 
Heartbeat CPU 0 instructions: 620000004 cycles: 249110132 heartbeat IPC: 0.968004 cumulative IPC: 0.971291 (Simulation time: 0 hr 52 min 40 sec) 
Heartbeat CPU 0 instructions: 630000003 cycles: 259451680 heartbeat IPC: 0.966973 cumulative IPC: 0.970957 (Simulation time: 0 hr 53 min 35 sec) 
Heartbeat CPU 0 instructions: 640000002 cycles: 269830596 heartbeat IPC: 0.963492 cumulative IPC: 0.97042 (Simulation time: 0 hr 54 min 35 sec) 
Heartbeat CPU 0 instructions: 650000000 cycles: 280151567 heartbeat IPC: 0.968901 cumulative IPC: 0.970319 (Simulation time: 0 hr 55 min 38 sec) 
Heartbeat CPU 0 instructions: 660000002 cycles: 290421389 heartbeat IPC: 0.973727 cumulative IPC: 0.970531 (Simulation time: 0 hr 56 min 30 sec) 
Heartbeat CPU 0 instructions: 670000000 cycles: 300725970 heartbeat IPC: 0.970442 cumulative IPC: 0.970526 (Simulation time: 0 hr 57 min 27 sec) 
Heartbeat CPU 0 instructions: 680000004 cycles: 311064388 heartbeat IPC: 0.967266 cumulative IPC: 0.970344 (Simulation time: 0 hr 58 min 30 sec) 
Heartbeat CPU 0 instructions: 690000001 cycles: 321341932 heartbeat IPC: 0.972995 cumulative IPC: 0.970483 (Simulation time: 0 hr 59 min 31 sec) 
Heartbeat CPU 0 instructions: 700000001 cycles: 331642652 heartbeat IPC: 0.970806 cumulative IPC: 0.970499 (Simulation time: 1 hr 0 min 30 sec) 
Heartbeat CPU 0 instructions: 710000002 cycles: 341884991 heartbeat IPC: 0.97634 cumulative IPC: 0.970776 (Simulation time: 1 hr 1 min 11 sec) 
Heartbeat CPU 0 instructions: 720000000 cycles: 352250289 heartbeat IPC: 0.964757 cumulative IPC: 0.970501 (Simulation time: 1 hr 1 min 53 sec) 
Heartbeat CPU 0 instructions: 730000000 cycles: 362581961 heartbeat IPC: 0.967898 cumulative IPC: 0.970387 (Simulation time: 1 hr 2 min 32 sec) 
Heartbeat CPU 0 instructions: 740000001 cycles: 372905558 heartbeat IPC: 0.968655 cumulative IPC: 0.970315 (Simulation time: 1 hr 3 min 24 sec) 
Heartbeat CPU 0 instructions: 750000000 cycles: 383246891 heartbeat IPC: 0.966993 cumulative IPC: 0.970182 (Simulation time: 1 hr 4 min 18 sec) 
Heartbeat CPU 0 instructions: 760000002 cycles: 393562728 heartbeat IPC: 0.969383 cumulative IPC: 0.970151 (Simulation time: 1 hr 5 min 10 sec) 
Heartbeat CPU 0 instructions: 770000000 cycles: 403816819 heartbeat IPC: 0.97522 cumulative IPC: 0.970338 (Simulation time: 1 hr 6 min 10 sec) 
Heartbeat CPU 0 instructions: 780000002 cycles: 414192401 heartbeat IPC: 0.963802 cumulative IPC: 0.970103 (Simulation time: 1 hr 7 min 7 sec) 
Heartbeat CPU 0 instructions: 790000000 cycles: 424421320 heartbeat IPC: 0.97762 cumulative IPC: 0.97036 (Simulation time: 1 hr 8 min 7 sec) 
Heartbeat CPU 0 instructions: 800000004 cycles: 434737955 heartbeat IPC: 0.969309 cumulative IPC: 0.970325 (Simulation time: 1 hr 9 min 1 sec) 
Heartbeat CPU 0 instructions: 810000000 cycles: 444991529 heartbeat IPC: 0.975269 cumulative IPC: 0.970484 (Simulation time: 1 hr 9 min 52 sec) 
Heartbeat CPU 0 instructions: 820000000 cycles: 455317346 heartbeat IPC: 0.968446 cumulative IPC: 0.97042 (Simulation time: 1 hr 10 min 53 sec) 
Heartbeat CPU 0 instructions: 830000003 cycles: 465605894 heartbeat IPC: 0.971955 cumulative IPC: 0.970466 (Simulation time: 1 hr 11 min 49 sec) 
Heartbeat CPU 0 instructions: 840000002 cycles: 475826418 heartbeat IPC: 0.978423 cumulative IPC: 0.970699 (Simulation time: 1 hr 12 min 40 sec) 
Heartbeat CPU 0 instructions: 850000004 cycles: 486130544 heartbeat IPC: 0.970485 cumulative IPC: 0.970692 (Simulation time: 1 hr 13 min 28 sec) 
Heartbeat CPU 0 instructions: 860000003 cycles: 496384174 heartbeat IPC: 0.975264 cumulative IPC: 0.970819 (Simulation time: 1 hr 14 min 12 sec) 
Heartbeat CPU 0 instructions: 870000004 cycles: 506704779 heartbeat IPC: 0.968936 cumulative IPC: 0.970768 (Simulation time: 1 hr 15 min 15 sec) 
Heartbeat CPU 0 instructions: 880000002 cycles: 517040666 heartbeat IPC: 0.967503 cumulative IPC: 0.970682 (Simulation time: 1 hr 16 min 13 sec) 
Heartbeat CPU 0 instructions: 890000003 cycles: 527228579 heartbeat IPC: 0.981555 cumulative IPC: 0.970957 (Simulation time: 1 hr 17 min 14 sec) 
Heartbeat CPU 0 instructions: 900000000 cycles: 537428488 heartbeat IPC: 0.980401 cumulative IPC: 0.971191 (Simulation time: 1 hr 18 min 14 sec) 
Heartbeat CPU 0 instructions: 910000001 cycles: 547585740 heartbeat IPC: 0.984518 cumulative IPC: 0.971512 (Simulation time: 1 hr 19 min 1 sec) 
Heartbeat CPU 0 instructions: 920000002 cycles: 557849492 heartbeat IPC: 0.974303 cumulative IPC: 0.971578 (Simulation time: 1 hr 20 min 0 sec) 
Heartbeat CPU 0 instructions: 930000002 cycles: 568172758 heartbeat IPC: 0.968686 cumulative IPC: 0.971511 (Simulation time: 1 hr 21 min 1 sec) 
Heartbeat CPU 0 instructions: 940000001 cycles: 578340108 heartbeat IPC: 0.98354 cumulative IPC: 0.971781 (Simulation time: 1 hr 22 min 1 sec) 
Heartbeat CPU 0 instructions: 950000000 cycles: 588600773 heartbeat IPC: 0.974596 cumulative IPC: 0.971843 (Simulation time: 1 hr 23 min 2 sec) 
Heartbeat CPU 0 instructions: 960000001 cycles: 606337387 heartbeat IPC: 0.563806 cumulative IPC: 0.95679 (Simulation time: 1 hr 24 min 21 sec) 
Heartbeat CPU 0 instructions: 970000003 cycles: 616613847 heartbeat IPC: 0.973098 cumulative IPC: 0.957131 (Simulation time: 1 hr 25 min 4 sec) 
Heartbeat CPU 0 instructions: 980000001 cycles: 626778042 heartbeat IPC: 0.983846 cumulative IPC: 0.957673 (Simulation time: 1 hr 26 min 6 sec) 
Heartbeat CPU 0 instructions: 990000001 cycles: 637014855 heartbeat IPC: 0.976867 cumulative IPC: 0.958057 (Simulation time: 1 hr 27 min 2 sec) 
Heartbeat CPU 0 instructions: 1000000001 cycles: 647339605 heartbeat IPC: 0.968546 cumulative IPC: 0.958265 (Simulation time: 1 hr 28 min 6 sec) 
Heartbeat CPU 0 instructions: 1010000001 cycles: 657581018 heartbeat IPC: 0.976428 cumulative IPC: 0.958615 (Simulation time: 1 hr 29 min 9 sec) 
Heartbeat CPU 0 instructions: 1020000001 cycles: 667761142 heartbeat IPC: 0.982306 cumulative IPC: 0.959059 (Simulation time: 1 hr 30 min 0 sec) 
Heartbeat CPU 0 instructions: 1030000001 cycles: 678013282 heartbeat IPC: 0.975406 cumulative IPC: 0.959363 (Simulation time: 1 hr 30 min 48 sec) 
Heartbeat CPU 0 instructions: 1040000004 cycles: 688205634 heartbeat IPC: 0.981128 cumulative IPC: 0.959757 (Simulation time: 1 hr 31 min 28 sec) 
Heartbeat CPU 0 instructions: 1050000003 cycles: 698490334 heartbeat IPC: 0.972318 cumulative IPC: 0.959982 (Simulation time: 1 hr 32 min 7 sec) 
Heartbeat CPU 0 instructions: 1060000000 cycles: 708709468 heartbeat IPC: 0.978556 cumulative IPC: 0.960308 (Simulation time: 1 hr 33 min 0 sec) 
Heartbeat CPU 0 instructions: 1070000003 cycles: 718880348 heartbeat IPC: 0.983199 cumulative IPC: 0.9607 (Simulation time: 1 hr 33 min 54 sec) 
Heartbeat CPU 0 instructions: 1080000003 cycles: 729150481 heartbeat IPC: 0.973697 cumulative IPC: 0.960922 (Simulation time: 1 hr 34 min 44 sec) 
Heartbeat CPU 0 instructions: 1090000000 cycles: 739426746 heartbeat IPC: 0.973116 cumulative IPC: 0.961126 (Simulation time: 1 hr 35 min 46 sec) 
Heartbeat CPU 0 instructions: 1100000001 cycles: 749583004 heartbeat IPC: 0.984615 cumulative IPC: 0.961508 (Simulation time: 1 hr 36 min 37 sec) 
Heartbeat CPU 0 instructions: 1110000000 cycles: 759930385 heartbeat IPC: 0.966428 cumulative IPC: 0.961588 (Simulation time: 1 hr 37 min 37 sec) 
Heartbeat CPU 0 instructions: 1120000001 cycles: 770192172 heartbeat IPC: 0.974489 cumulative IPC: 0.961794 (Simulation time: 1 hr 38 min 26 sec) 
Heartbeat CPU 0 instructions: 1130000000 cycles: 780501055 heartbeat IPC: 0.970037 cumulative IPC: 0.961923 (Simulation time: 1 hr 39 min 6 sec) 
Heartbeat CPU 0 instructions: 1140000001 cycles: 790658236 heartbeat IPC: 0.984525 cumulative IPC: 0.962268 (Simulation time: 1 hr 39 min 50 sec) 
Heartbeat CPU 0 instructions: 1150000002 cycles: 800846599 heartbeat IPC: 0.981512 cumulative IPC: 0.962559 (Simulation time: 1 hr 40 min 28 sec) 
Heartbeat CPU 0 instructions: 1160000001 cycles: 811238688 heartbeat IPC: 0.96227 cumulative IPC: 0.962554 (Simulation time: 1 hr 41 min 16 sec) 
Heartbeat CPU 0 instructions: 1170000000 cycles: 821466150 heartbeat IPC: 0.97776 cumulative IPC: 0.962778 (Simulation time: 1 hr 42 min 1 sec) 
Heartbeat CPU 0 instructions: 1180000001 cycles: 831691848 heartbeat IPC: 0.977928 cumulative IPC: 0.962997 (Simulation time: 1 hr 42 min 45 sec) 
Heartbeat CPU 0 instructions: 1190000002 cycles: 841987179 heartbeat IPC: 0.971314 cumulative IPC: 0.963117 (Simulation time: 1 hr 43 min 29 sec) 
Heartbeat CPU 0 instructions: 1200000003 cycles: 852234942 heartbeat IPC: 0.975823 cumulative IPC: 0.963296 (Simulation time: 1 hr 44 min 32 sec) 
Heartbeat CPU 0 instructions: 1210000000 cycles: 862429841 heartbeat IPC: 0.980882 cumulative IPC: 0.963539 (Simulation time: 1 hr 45 min 30 sec) 
Heartbeat CPU 0 instructions: 1220000003 cycles: 872733971 heartbeat IPC: 0.970485 cumulative IPC: 0.963635 (Simulation time: 1 hr 46 min 25 sec) 
Heartbeat CPU 0 instructions: 1230000000 cycles: 883054362 heartbeat IPC: 0.968955 cumulative IPC: 0.963708 (Simulation time: 1 hr 47 min 28 sec) 
Heartbeat CPU 0 instructions: 1240000001 cycles: 893303483 heartbeat IPC: 0.975694 cumulative IPC: 0.963868 (Simulation time: 1 hr 48 min 31 sec) 
Heartbeat CPU 0 instructions: 1250000003 cycles: 903608394 heartbeat IPC: 0.970411 cumulative IPC: 0.963954 (Simulation time: 1 hr 49 min 25 sec) 
Heartbeat CPU 0 instructions: 1260000003 cycles: 913886700 heartbeat IPC: 0.972923 cumulative IPC: 0.964071 (Simulation time: 1 hr 50 min 2 sec) 
Heartbeat CPU 0 instructions: 1270000000 cycles: 924176297 heartbeat IPC: 0.971855 cumulative IPC: 0.964172 (Simulation time: 1 hr 50 min 39 sec) 
Heartbeat CPU 0 instructions: 1280000000 cycles: 934423113 heartbeat IPC: 0.975913 cumulative IPC: 0.96432 (Simulation time: 1 hr 51 min 24 sec) 
Heartbeat CPU 0 instructions: 1290000003 cycles: 944717879 heartbeat IPC: 0.971368 cumulative IPC: 0.964409 (Simulation time: 1 hr 52 min 4 sec) 
Heartbeat CPU 0 instructions: 1300000001 cycles: 954955124 heartbeat IPC: 0.976825 cumulative IPC: 0.964562 (Simulation time: 1 hr 52 min 45 sec) 
Heartbeat CPU 0 instructions: 1310000001 cycles: 965241868 heartbeat IPC: 0.972125 cumulative IPC: 0.964655 (Simulation time: 1 hr 53 min 30 sec) 
Heartbeat CPU 0 instructions: 1320000002 cycles: 975597433 heartbeat IPC: 0.965664 cumulative IPC: 0.964667 (Simulation time: 1 hr 54 min 28 sec) 
Heartbeat CPU 0 instructions: 1330000003 cycles: 985797912 heartbeat IPC: 0.980346 cumulative IPC: 0.964853 (Simulation time: 1 hr 55 min 27 sec) 
Heartbeat CPU 0 instructions: 1340000000 cycles: 995927175 heartbeat IPC: 0.987238 cumulative IPC: 0.965113 (Simulation time: 1 hr 56 min 30 sec) 
Heartbeat CPU 0 instructions: 1350000000 cycles: 1006152801 heartbeat IPC: 0.977935 cumulative IPC: 0.965262 (Simulation time: 1 hr 57 min 32 sec) 
Heartbeat CPU 0 instructions: 1360000001 cycles: 1016418413 heartbeat IPC: 0.974126 cumulative IPC: 0.965365 (Simulation time: 1 hr 58 min 22 sec) 
Heartbeat CPU 0 instructions: 1370000003 cycles: 1026697341 heartbeat IPC: 0.972864 cumulative IPC: 0.96545 (Simulation time: 1 hr 59 min 25 sec) 
Heartbeat CPU 0 instructions: 1380000000 cycles: 1036927726 heartbeat IPC: 0.97748 cumulative IPC: 0.965585 (Simulation time: 2 hr 0 min 23 sec) 
Heartbeat CPU 0 instructions: 1390000000 cycles: 1047156782 heartbeat IPC: 0.977607 cumulative IPC: 0.965719 (Simulation time: 2 hr 1 min 19 sec) 
Heartbeat CPU 0 instructions: 1400000001 cycles: 1057325085 heartbeat IPC: 0.983448 cumulative IPC: 0.965912 (Simulation time: 2 hr 2 min 22 sec) 
Heartbeat CPU 0 instructions: 1410000000 cycles: 1067569381 heartbeat IPC: 0.976153 cumulative IPC: 0.966023 (Simulation time: 2 hr 3 min 24 sec) 
Heartbeat CPU 0 instructions: 1420000000 cycles: 1077833993 heartbeat IPC: 0.974221 cumulative IPC: 0.966112 (Simulation time: 2 hr 4 min 4 sec) 
Heartbeat CPU 0 instructions: 1430000000 cycles: 1088043420 heartbeat IPC: 0.979487 cumulative IPC: 0.966254 (Simulation time: 2 hr 4 min 49 sec) 
Heartbeat CPU 0 instructions: 1440000000 cycles: 1098302006 heartbeat IPC: 0.974793 cumulative IPC: 0.966344 (Simulation time: 2 hr 5 min 50 sec) 
Heartbeat CPU 0 instructions: 1450000002 cycles: 1108545505 heartbeat IPC: 0.976229 cumulative IPC: 0.966447 (Simulation time: 2 hr 6 min 32 sec) 
Heartbeat CPU 0 instructions: 1460000004 cycles: 1118797109 heartbeat IPC: 0.975457 cumulative IPC: 0.96654 (Simulation time: 2 hr 7 min 15 sec) 
Heartbeat CPU 0 instructions: 1470000001 cycles: 1129033893 heartbeat IPC: 0.976869 cumulative IPC: 0.966645 (Simulation time: 2 hr 8 min 7 sec) 
Heartbeat CPU 0 instructions: 1480000003 cycles: 1139234613 heartbeat IPC: 0.980323 cumulative IPC: 0.966783 (Simulation time: 2 hr 9 min 7 sec) 
Heartbeat CPU 0 instructions: 1490000001 cycles: 1149454710 heartbeat IPC: 0.978464 cumulative IPC: 0.966899 (Simulation time: 2 hr 10 min 10 sec) 
Heartbeat CPU 0 instructions: 1500000000 cycles: 1159744247 heartbeat IPC: 0.971861 cumulative IPC: 0.966949 (Simulation time: 2 hr 11 min 12 sec) 
Heartbeat CPU 0 instructions: 1510000002 cycles: 1169996453 heartbeat IPC: 0.9754 cumulative IPC: 0.967032 (Simulation time: 2 hr 12 min 14 sec) 
Heartbeat CPU 0 instructions: 1520000003 cycles: 1180252085 heartbeat IPC: 0.975074 cumulative IPC: 0.96711 (Simulation time: 2 hr 13 min 15 sec) 
Heartbeat CPU 0 instructions: 1530000000 cycles: 1190507308 heartbeat IPC: 0.975113 cumulative IPC: 0.967187 (Simulation time: 2 hr 14 min 4 sec) 
Heartbeat CPU 0 instructions: 1540000002 cycles: 1200753924 heartbeat IPC: 0.975932 cumulative IPC: 0.96727 (Simulation time: 2 hr 15 min 1 sec) 
Heartbeat CPU 0 instructions: 1550000003 cycles: 1211002723 heartbeat IPC: 0.975724 cumulative IPC: 0.96735 (Simulation time: 2 hr 16 min 3 sec) 
Heartbeat CPU 0 instructions: 1560000001 cycles: 1221258585 heartbeat IPC: 0.975052 cumulative IPC: 0.967422 (Simulation time: 2 hr 17 min 1 sec) 
Heartbeat CPU 0 instructions: 1570000000 cycles: 1231502294 heartbeat IPC: 0.976209 cumulative IPC: 0.967504 (Simulation time: 2 hr 17 min 51 sec) 
Heartbeat CPU 0 instructions: 1580000003 cycles: 1241772274 heartbeat IPC: 0.973712 cumulative IPC: 0.967561 (Simulation time: 2 hr 18 min 46 sec) 
Heartbeat CPU 0 instructions: 1590000004 cycles: 1252170482 heartbeat IPC: 0.961704 cumulative IPC: 0.967507 (Simulation time: 2 hr 19 min 45 sec) 
Heartbeat CPU 0 instructions: 1600000000 cycles: 1262400604 heartbeat IPC: 0.977505 cumulative IPC: 0.967597 (Simulation time: 2 hr 20 min 42 sec) 
Heartbeat CPU 0 instructions: 1610000000 cycles: 1272630349 heartbeat IPC: 0.977541 cumulative IPC: 0.967685 (Simulation time: 2 hr 21 min 30 sec) 
Heartbeat CPU 0 instructions: 1620000002 cycles: 1282869878 heartbeat IPC: 0.976608 cumulative IPC: 0.967764 (Simulation time: 2 hr 22 min 14 sec) 
Heartbeat CPU 0 instructions: 1630000003 cycles: 1293132973 heartbeat IPC: 0.974365 cumulative IPC: 0.967822 (Simulation time: 2 hr 23 min 3 sec) 
Heartbeat CPU 0 instructions: 1640000004 cycles: 1303394550 heartbeat IPC: 0.974509 cumulative IPC: 0.96788 (Simulation time: 2 hr 23 min 53 sec) 
Heartbeat CPU 0 instructions: 1650000002 cycles: 1313620067 heartbeat IPC: 0.977945 cumulative IPC: 0.967967 (Simulation time: 2 hr 24 min 36 sec) 
Heartbeat CPU 0 instructions: 1660000000 cycles: 1323942987 heartbeat IPC: 0.968718 cumulative IPC: 0.967974 (Simulation time: 2 hr 25 min 31 sec) 
Heartbeat CPU 0 instructions: 1670000000 cycles: 1334179145 heartbeat IPC: 0.976929 cumulative IPC: 0.968049 (Simulation time: 2 hr 26 min 34 sec) 
Heartbeat CPU 0 instructions: 1680000000 cycles: 1344414534 heartbeat IPC: 0.977002 cumulative IPC: 0.968125 (Simulation time: 2 hr 27 min 28 sec) 
Heartbeat CPU 0 instructions: 1690000000 cycles: 1354549483 heartbeat IPC: 0.986685 cumulative IPC: 0.968278 (Simulation time: 2 hr 28 min 6 sec) 
Heartbeat CPU 0 instructions: 1700000000 cycles: 1364780207 heartbeat IPC: 0.977448 cumulative IPC: 0.968353 (Simulation time: 2 hr 28 min 44 sec) 
Heartbeat CPU 0 instructions: 1710000000 cycles: 1374973916 heartbeat IPC: 0.980997 cumulative IPC: 0.968457 (Simulation time: 2 hr 29 min 20 sec) 
Heartbeat CPU 0 instructions: 1720000000 cycles: 1385237828 heartbeat IPC: 0.974287 cumulative IPC: 0.968504 (Simulation time: 2 hr 29 min 57 sec) 
Heartbeat CPU 0 instructions: 1730000000 cycles: 1395426986 heartbeat IPC: 0.981435 cumulative IPC: 0.968608 (Simulation time: 2 hr 30 min 33 sec) 
Heartbeat CPU 0 instructions: 1740000000 cycles: 1405682355 heartbeat IPC: 0.975099 cumulative IPC: 0.96866 (Simulation time: 2 hr 31 min 10 sec) 
Heartbeat CPU 0 instructions: 1750000004 cycles: 1415923772 heartbeat IPC: 0.976428 cumulative IPC: 0.968721 (Simulation time: 2 hr 31 min 47 sec) 
Heartbeat CPU 0 instructions: 1760000001 cycles: 1426038864 heartbeat IPC: 0.988621 cumulative IPC: 0.968876 (Simulation time: 2 hr 32 min 23 sec) 
Heartbeat CPU 0 instructions: 1770000002 cycles: 1436354873 heartbeat IPC: 0.969367 cumulative IPC: 0.96888 (Simulation time: 2 hr 33 min 0 sec) 
Heartbeat CPU 0 instructions: 1780000000 cycles: 1446485652 heartbeat IPC: 0.987091 cumulative IPC: 0.96902 (Simulation time: 2 hr 33 min 38 sec) 
Heartbeat CPU 0 instructions: 1790000002 cycles: 1456559838 heartbeat IPC: 0.992636 cumulative IPC: 0.969199 (Simulation time: 2 hr 34 min 14 sec) 
Heartbeat CPU 0 instructions: 1800000001 cycles: 1474218111 heartbeat IPC: 0.566307 cumulative IPC: 0.963923 (Simulation time: 2 hr 35 min 19 sec) 
Heartbeat CPU 0 instructions: 1810000000 cycles: 1484586189 heartbeat IPC: 0.964499 cumulative IPC: 0.963928 (Simulation time: 2 hr 35 min 56 sec) 
Heartbeat CPU 0 instructions: 1820000003 cycles: 1494942927 heartbeat IPC: 0.965555 cumulative IPC: 0.96394 (Simulation time: 2 hr 36 min 34 sec) 
Heartbeat CPU 0 instructions: 1830000002 cycles: 1505379682 heartbeat IPC: 0.958152 cumulative IPC: 0.963896 (Simulation time: 2 hr 37 min 12 sec) 
Heartbeat CPU 0 instructions: 1840000001 cycles: 1515740563 heartbeat IPC: 0.965169 cumulative IPC: 0.963906 (Simulation time: 2 hr 37 min 52 sec) 
Heartbeat CPU 0 instructions: 1850000001 cycles: 1525983991 heartbeat IPC: 0.976236 cumulative IPC: 0.963996 (Simulation time: 2 hr 38 min 53 sec) 
Heartbeat CPU 0 instructions: 1860000000 cycles: 1536173905 heartbeat IPC: 0.981362 cumulative IPC: 0.964121 (Simulation time: 2 hr 39 min 30 sec) 
Heartbeat CPU 0 instructions: 1870000004 cycles: 1546387573 heartbeat IPC: 0.979081 cumulative IPC: 0.964229 (Simulation time: 2 hr 40 min 7 sec) 
Heartbeat CPU 0 instructions: 1880000000 cycles: 1556623051 heartbeat IPC: 0.976994 cumulative IPC: 0.96432 (Simulation time: 2 hr 40 min 44 sec) 
Heartbeat CPU 0 instructions: 1890000004 cycles: 1566842983 heartbeat IPC: 0.97848 cumulative IPC: 0.964421 (Simulation time: 2 hr 41 min 21 sec) 
Heartbeat CPU 0 instructions: 1900000003 cycles: 1577187355 heartbeat IPC: 0.966709 cumulative IPC: 0.964437 (Simulation time: 2 hr 41 min 59 sec) 
Heartbeat CPU 0 instructions: 1910000000 cycles: 1587360880 heartbeat IPC: 0.982943 cumulative IPC: 0.964566 (Simulation time: 2 hr 42 min 40 sec) 
Heartbeat CPU 0 instructions: 1920000004 cycles: 1597494404 heartbeat IPC: 0.986824 cumulative IPC: 0.964719 (Simulation time: 2 hr 43 min 16 sec) 
Heartbeat CPU 0 instructions: 1930000001 cycles: 1607715132 heartbeat IPC: 0.978404 cumulative IPC: 0.964813 (Simulation time: 2 hr 43 min 53 sec) 
Heartbeat CPU 0 instructions: 1940000004 cycles: 1617929734 heartbeat IPC: 0.978991 cumulative IPC: 0.96491 (Simulation time: 2 hr 44 min 30 sec) 
Heartbeat CPU 0 instructions: 1950000000 cycles: 1628139129 heartbeat IPC: 0.97949 cumulative IPC: 0.965009 (Simulation time: 2 hr 45 min 7 sec) 
Heartbeat CPU 0 instructions: 1960000002 cycles: 1638292180 heartbeat IPC: 0.984926 cumulative IPC: 0.965143 (Simulation time: 2 hr 45 min 44 sec) 
Heartbeat CPU 0 instructions: 1970000003 cycles: 1648498217 heartbeat IPC: 0.979812 cumulative IPC: 0.965241 (Simulation time: 2 hr 46 min 22 sec) 
Heartbeat CPU 0 instructions: 1980000001 cycles: 1658661151 heartbeat IPC: 0.983968 cumulative IPC: 0.965366 (Simulation time: 2 hr 47 min 0 sec) 
Heartbeat CPU 0 instructions: 1990000001 cycles: 1668909484 heartbeat IPC: 0.975768 cumulative IPC: 0.965435 (Simulation time: 2 hr 47 min 41 sec) 
*** Reached end of trace: traces/641.leela_s-800B.champsimtrace.xz
Heartbeat CPU 0 instructions: 2000000000 cycles: 1679105413 heartbeat IPC: 0.980784 cumulative IPC: 0.965535 (Simulation time: 2 hr 48 min 25 sec) 
Finished CPU 0 instructions: 1500000001 cycles: 1553542218 cumulative IPC: 0.965535 (Simulation time: 2 hr 48 min 25 sec) 

ChampSim completed all CPUs

Region of Interest Statistics

CPU 0 cumulative IPC: 0.965535 instructions: 1500000001 cycles: 1553542218
cpu0_DTLB TOTAL     ACCESS:  287544370  HIT:  286935717  MISS:     608653
cpu0_DTLB LOAD      ACCESS:  199092179  HIT:  198503282  MISS:     588897
cpu0_DTLB RFO       ACCESS:   88452191  HIT:   88432435  MISS:      19756
cpu0_DTLB PREFETCH  ACCESS:          0  HIT:          0  MISS:          0
cpu0_DTLB WRITEBACK ACCESS:          0  HIT:          0  MISS:          0
cpu0_DTLB TRANSLATION ACCESS:          0  HIT:          0  MISS:          0
cpu0_DTLB PREFETCH  REQUESTED:          0  ISSUED:          0  USEFUL:          0  USELESS:          0
cpu0_DTLB AVERAGE MISS LATENCY: 9.17222 cycles
cpu0_ITLB TOTAL     ACCESS:  157816057  HIT:  157815992  MISS:         65
cpu0_ITLB LOAD      ACCESS:  157816057  HIT:  157815992  MISS:         65
cpu0_ITLB RFO       ACCESS:          0  HIT:          0  MISS:          0
cpu0_ITLB PREFETCH  ACCESS:          0  HIT:          0  MISS:          0
cpu0_ITLB WRITEBACK ACCESS:          0  HIT:          0  MISS:          0
cpu0_ITLB TRANSLATION ACCESS:          0  HIT:          0  MISS:          0
cpu0_ITLB PREFETCH  REQUESTED:          0  ISSUED:          0  USEFUL:          0  USELESS:          0
cpu0_ITLB AVERAGE MISS LATENCY: 14.7538 cycles
cpu0_L1I TOTAL     ACCESS:  142954602  HIT:  142922930  MISS:      31672
cpu0_L1I LOAD      ACCESS:  142954602  HIT:  142922930  MISS:      31672
cpu0_L1I RFO       ACCESS:          0  HIT:          0  MISS:          0
cpu0_L1I PREFETCH  ACCESS:          0  HIT:          0  MISS:          0
cpu0_L1I WRITEBACK ACCESS:          0  HIT:          0  MISS:          0
cpu0_L1I TRANSLATION ACCESS:          0  HIT:          0  MISS:          0
cpu0_L1I PREFETCH  REQUESTED:          0  ISSUED:          0  USEFUL:          0  USELESS:          0
cpu0_L1I AVERAGE MISS LATENCY: 22.5738 cycles
cpu0_STLB TOTAL     ACCESS:     608718  HIT:     607273  MISS:       1445
cpu0_STLB LOAD      ACCESS:     588962  HIT:     587993  MISS:        969
cpu0_STLB RFO       ACCESS:      19756  HIT:      19280  MISS:        476
cpu0_STLB PREFETCH  ACCESS:          0  HIT:          0  MISS:          0
cpu0_STLB WRITEBACK ACCESS:          0  HIT:          0  MISS:          0
cpu0_STLB TRANSLATION ACCESS:          0  HIT:          0  MISS:          0
cpu0_STLB PREFETCH  REQUESTED:          0  ISSUED:          0  USEFUL:          0  USELESS:          0
cpu0_STLB AVERAGE MISS LATENCY: 72.7024 cycles
cpu0_L1D TOTAL     ACCESS:  405193708  HIT:  401429918  MISS:    3763790
cpu0_L1D LOAD      ACCESS:  235639160  HIT:  232300609  MISS:    3338551
cpu0_L1D RFO       ACCESS:  169553103  HIT:  169128488  MISS:     424615
cpu0_L1D PREFETCH  ACCESS:          0  HIT:          0  MISS:          0
cpu0_L1D WRITEBACK ACCESS:          0  HIT:          0  MISS:          0
cpu0_L1D TRANSLATION ACCESS:       1445  HIT:        821  MISS:        624
cpu0_L1D PREFETCH  REQUESTED:          0  ISSUED:          0  USEFUL:          0  USELESS:          0
cpu0_L1D AVERAGE MISS LATENCY: 19.5739 cycles
cpu0_L2C TOTAL     ACCESS:    4520429  HIT:    4353732  MISS:     166697
cpu0_L2C LOAD      ACCESS:    3370192  HIT:    3275015  MISS:      95177
cpu0_L2C RFO       ACCESS:     424588  HIT:     353125  MISS:      71463
cpu0_L2C PREFETCH  ACCESS:          0  HIT:          0  MISS:          0
cpu0_L2C WRITEBACK ACCESS:     725025  HIT:     724984  MISS:         41
cpu0_L2C TRANSLATION ACCESS:        624  HIT:        608  MISS:         16
cpu0_L2C PREFETCH  REQUESTED:          0  ISSUED:          0  USEFUL:          0  USELESS:          0
cpu0_L2C AVERAGE MISS LATENCY: 195.521 cycles
LLC TOTAL     ACCESS:     246164  HIT:     124310  MISS:     121854
LLC LOAD      ACCESS:      95177  HIT:      33022  MISS:      62155
LLC RFO       ACCESS:      71463  HIT:      11829  MISS:      59634
LLC PREFETCH  ACCESS:          0  HIT:          0  MISS:          0
LLC WRITEBACK ACCESS:      79508  HIT:      79448  MISS:         60
LLC TRANSLATION ACCESS:         16  HIT:         11  MISS:          5
LLC PREFETCH  REQUESTED:          0  ISSUED:          0  USEFUL:          0  USELESS:          0
LLC AVERAGE MISS LATENCY: 238.752 cycles
~~~~~~~~~~Reuse Distance Profiler output~~~~~~~~~~
0	122284736	15504896
1	43512080	16881152
2	32904912	15729152
3	20461728	12919184
4	18494896	11613136
5	15836576	10245024
6	14665888	9547840
7	11387824	7740096
8	9736688	7159632
9	9349072	6734992
10	8658032	6032912
11	8555552	6285936
12	8368608	6737376
13	7169472	5589472
14	6678864	5183216
15	5702400	4467472
16	6183616	4666192
17	5807856	3987968
18	4920160	3739968
19	4664912	3359616
20	3747872	3013392
21	3781744	3014512
22	3607584	3031344
23	3408976	2796416
24	3193088	2552704
25	3285584	2780224
26	3495344	2642896
27	2926000	2450960
28	2605024	2200304
29	2330976	1961360
30	2330160	1986736
31	2317904	1981136
32	2193040	1843728
33	2125056	1808496
34	2352400	1671136
35	1766592	1465776
36	1560816	1338112
37	1411488	1229440
38	1342192	1185600
39	1207840	1060496
40	1185600	1026032
41	1215856	1081696
42	1309184	1178208
43	1143952	1008064
44	1157520	1016208
45	1029712	907024
46	1125440	1016768
47	1052144	946160
48	1114176	1004464
49	1006384	897200
50	981952	865040
51	993808	863744
52	1004800	872000
53	1036112	901040
54	1097504	960128
55	1060624	917568
56	1106688	955504
57	1153424	994160
58	1111296	944128
59	1097808	927440
60	1093280	917216
61	1102144	918736
62	1162144	977856
63	1184624	995376
64	2705712	2318784
66	2632736	2230080
68	2305952	1921664
70	1977072	1649824
72	1800544	1488416
74	1717152	1402592
76	1627104	1309600
78	1560032	1219312
80	1417728	1103040
82	1320176	1045456
84	1284912	1020416
86	1237248	977824
88	1157584	907904
90	1059312	813376
92	955152	736448
94	904448	696720
96	861504	671200
98	797200	643008
100	746128	614400
102	705312	594000
104	658864	562704
106	625200	540656
108	595248	523968
110	572960	512608
112	557296	500224
114	539472	487376
116	522928	471616
118	491520	444032
120	477360	430000
122	458800	415248
124	443744	401312
126	427008	384944
128	834096	749152
132	822880	742960
136	795184	719696
140	751904	679744
144	710240	645472
148	683344	622672
152	647408	587216
156	583440	524144
160	545920	492096
164	520656	464352
168	490960	433792
172	461328	405808
176	447696	388624
180	434816	371872
184	421952	358240
188	409888	347888
192	407328	346560
196	397616	342656
200	385216	333776
204	378592	329920
208	362320	318608
212	356064	316768
216	348592	311328
220	334784	302016
224	309568	278064
228	310400	278176
232	299200	269296
236	292240	261504
240	286512	254496
244	286208	253936
248	286400	253136
252	274896	239552
256	558432	486672
264	537536	469152
272	524192	465024
280	507552	454720
288	497216	444384
296	490128	438064
304	489264	434496
312	467328	410064
320	453152	391712
328	448160	388128
336	431200	372256
344	414528	357440
352	403392	348224
360	388000	334192
368	382528	325648
376	366160	308176
384	351696	294720
392	341744	288288
400	332256	281248
408	318160	270480
416	312176	260256
424	304336	253488
432	295888	243024
440	290912	240240
448	285248	233728
456	284464	234864
464	281200	233728
472	276912	230416
480	267184	220352
488	260720	216352
496	258512	213728
504	254576	208784
512	509712	419696
528	500784	414336
544	486960	406096
560	475360	397168
576	468640	395024
592	468496	394768
608	464208	393008
624	441808	372640
640	420368	355024
656	398144	338128
672	378896	327680
688	354896	307008
704	331120	284688
720	315584	273296
736	299984	262064
752	290624	254784
768	267184	233728
784	253392	223600
800	234640	207968
816	231968	204800
832	227840	201328
848	221392	198704
864	210912	189888
880	201120	181936
896	197024	177792
912	192432	174144
928	188768	170432
944	178416	160672
960	178464	161552
976	166912	151376
992	164400	149264
1008	160992	146272
1024	313856	283056
1056	289072	260912
1088	282640	253296
1120	274352	246272
1152	262816	234672
1184	259680	230592
1216	253952	225616
1248	244512	217856
1280	232800	208096
1312	226832	203232
1344	215968	194384
1376	207968	185808
1408	202736	181040
1440	190640	171536
1472	180752	162272
1504	175376	158816
1536	165936	149488
1568	163296	148016
1600	154992	140976
1632	148864	135104
1664	140544	127216
1696	137040	124224
1728	132160	118864
1760	130176	117248
1792	126336	112976
1824	120768	109248
1856	118720	106176
1888	116896	105008
1920	116064	104192
1952	112880	99712
1984	118336	104576
2016	114080	99952
2048	221248	194080
2112	204160	181216
2176	197168	176896
2240	191040	170720
2304	180640	162528
2368	181152	162544
2432	176304	155280
2496	169024	151664
2560	176016	158688
2624	174656	157824
2688	174592	157168
2752	178224	161616
2816	190320	173952
2880	209168	193616
2944	210080	193664
3008	194784	179184
3072	174736	160768
3136	156288	142000
3200	154576	140784
3264	147008	132912
3328	137808	123696
3392	119344	103376
3456	102496	84448
3520	97104	81184
3584	95664	79360
3648	92976	78288
3712	90368	76160
3776	88352	72560
3840	87072	71328
3904	85104	68880
3968	81552	67536
4032	77280	64240
4096	147376	123216
4224	137024	114256
4352	134544	109520
4480	133840	105952
4608	126128	98944
4736	153536	128848
4864	192000	166672
4992	203392	179920
5120	199680	181984
5248	205088	187280
5376	174256	156896
5504	105920	88832
5632	90336	71120
5760	80816	62976
5888	78016	59792
6016	74416	56832
6144	72848	55504
6272	79008	61632
6400	99712	83264
6528	106832	90848
6656	107328	91840
6784	93600	78496
6912	75168	58608
7040	66672	50048
7168	60816	45040
7296	57920	42192
7424	55216	39248
7552	50000	36096
7680	49776	35216
7808	45184	32512
7936	45200	32112
8064	43296	31168
8192	83248	61680
8448	78176	57600
8704	75664	54832
8960	71456	52448
9216	65728	48096
9472	61360	44832
9728	58960	42688
9984	57904	41952
10240	53184	38016
10496	52080	37808
10752	50320	35504
11008	46784	33584
11264	45040	32384
11520	42432	30272
11776	42240	29824
12032	38608	27424
12288	38160	27232
12544	36032	24960
12800	33824	23872
13056	33776	23664
13312	32832	22656
13568	31936	22272
13824	31104	21632
14080	28576	20864
14336	27008	19424
14592	27520	20048
14848	25232	18496
15104	25008	17968
15360	23056	16384
15616	22480	16688
15872	23072	17056
16128	21872	16240
16384	41856	31616
16896	38608	29392
17408	36112	27008
17920	34880	26176
18432	32384	24688
18944	32288	24336
19456	30096	22720
19968	28480	21808
20480	26672	20592
20992	24592	19280
21504	25744	20528
22016	23584	18576
22528	21024	16784
23040	22144	17456
23552	21440	17456
24064	18928	15264
24576	20464	16464
25088	19008	14960
25600	17792	14400
26112	17456	13984
26624	16368	13152
27136	15712	12752
27648	15632	13040
28160	15488	12864
28672	13760	11536
29184	12528	10640
29696	14032	12032
30208	13776	11776
30720	12944	10992
31232	12592	10816
31744	11968	10272
32256	12704	11024
32768	23776	20304
33792	21024	18144
34816	20384	17552
35840	19168	16800
36864	19648	17312
37888	18464	16128
38912	16896	15072
39936	16416	14704
40960	15952	14640
41984	14960	13360
43008	14512	13504
44032	13792	12464
45056	13104	11952
46080	12368	11296
47104	13072	12176
48128	11312	10464
49152	11152	10336
50176	10656	9808
51200	10080	9168
52224	10832	10240
53248	9552	9008
54272	9040	8624
55296	8896	8416
56320	8576	8128
57344	8544	8064
58368	8512	8144
59392	7888	7488
60416	8288	7856
61440	7472	7008
62464	7344	6976
63488	7168	6832
64512	6976	6624
65536	14160	13280
67584	13808	13104
69632	13776	13120
71680	13104	12528
73728	12336	11952
75776	11728	11216
77824	11376	10768
79872	11168	10656
81920	10880	10544
83968	11072	10688
86016	11040	10640
88064	9648	9216
90112	10400	10064
92160	10416	9968
94208	9216	8864
96256	10064	9680
98304	9744	9488
100352	9104	8688
102400	9488	9024
104448	9824	9344
106496	9088	8752
108544	9360	9072
110592	8400	8016
112640	17680	17392
114688	12928	12656
116736	10864	10480
118784	10832	10448
120832	10512	10096
122880	10768	10496
124928	10048	9728
126976	10240	9696
129024	9168	8880
131072	18992	18336
135168	20848	20048
139264	20672	19920
143360	22432	21408
147456	22368	21648
151552	21120	20384
155648	22944	21904
159744	27088	26160
163840	31040	29968
167936	36384	34976
172032	40912	39056
176128	51024	48752
180224	62992	59824
184320	73632	69840
188416	97024	91040
192512	124752	117696
196608	127792	118416
200704	137200	128864
204800	150944	140608
208896	156496	146192
212992	159008	147936
217088	159056	148144
221184	161392	149504
225280	138608	128400
229376	139232	130464
233472	125728	116336
237568	98112	90576
241664	89632	84176
245760	81744	75568
249856	67552	62704
253952	65072	60720
258048	53440	49760
262144	73728	68592
270336	49024	45824
278528	28368	26784
286720	19600	18752
294912	12832	12432
303104	9952	9840
311296	11376	11216
319488	8688	8560
327680	8096	8080
335872	8912	8832
344064	7472	7408
352256	8336	8320
360448	7648	7632
368640	8128	8128
376832	8512	8512
385024	9104	9088
393216	9824	9808
401408	8736	8736
409600	10544	10528
417792	10720	10688
425984	9968	9936
434176	9424	9408
442368	9328	9168
450560	8096	8048
458752	7008	6912
466944	7840	7808
475136	6512	6480
483328	5328	5296
491520	5248	5232
499712	5168	5168
507904	4768	4752
516096	3904	3904
524288	7184	7152
540672	7328	7248
557056	6656	6656
573440	7184	7168
589824	6560	6560
606208	8320	8272
622592	8608	8576
638976	8736	8688
655360	7920	7888
671744	6592	6560
688128	6880	6864
704512	5824	5824
720896	4784	4784
737280	4240	4240
753664	4096	4096
770048	4176	4176
786432	3648	3648
802816	3760	3760
819200	3552	3552
835584	5440	5440
851968	4448	4448
868352	4304	4304
884736	4416	4384
901120	3920	3920
917504	3552	3552
933888	3472	3440
950272	2976	2976
966656	2912	2912
983040	2992	2976
999424	2160	2144
1015808	2512	2512
1032192	2736	2720
1048576	5200	5168
1081344	5344	5312
1114112	6016	5984
1146880	4800	4784
1179648	4144	4144
1212416	3232	3216
1245184	3440	3424
1277952	3408	3408
1310720	3680	3680
1343488	3824	3824
1376256	3760	3760
1409024	3184	3168
1441792	2368	2368
1474560	2480	2464
1507328	2416	2416
1540096	2384	2384
1572864	2544	2512
1605632	3360	3360
1638400	2400	2368
1671168	2064	2048
1703936	1872	1872
1736704	2608	2592
1769472	1920	1920
1802240	1488	1488
1835008	2208	2208
1867776	1616	1616
1900544	1984	1984
1933312	1904	1904
1966080	1584	1584
1998848	1344	1344
2031616	1600	1600
2064384	1520	1520
2097152	2400	2400
2162688	3152	3136
2228224	2704	2688
2293760	2208	2208
2359296	2496	2496
2424832	2224	2224
2490368	2224	2192
2555904	2000	2000
2621440	2048	2032
2686976	1984	1968
2752512	1712	1680
2818048	1504	1472
2883584	1440	1440
2949120	1664	1648
3014656	2032	2016
3080192	1472	1472
3145728	1376	1360
3211264	2656	2640
3276800	1088	1072
3342336	2112	2080
3407872	1648	1616
3473408	1296	1280
3538944	1024	1024
3604480	1424	1424
3670016	1472	1456
3735552	1040	1040
3801088	1392	1360
3866624	1392	1376
3932160	1072	1072
3997696	1776	1760
4063232	800	784
4128768	1456	1440
4194304	2768	2736
4325376	2448	2432
4456448	1984	1984
4587520	1920	1920
4718592	1584	1584
4849664	1200	1200
4980736	1696	1680
5111808	1488	1472
5242880	1136	1104
5373952	1424	1424
5505024	1360	1360
5636096	1616	1616
5767168	1328	1136
5898240	1760	1584
6029312	1072	1056
6160384	1472	1456
6291456	1040	1040
6422528	992	992
6553600	1520	1520
6684672	1072	1072
6815744	864	864
6946816	800	800
7077888	848	848
7208960	1264	1264
7340032	928	928
7471104	992	992
7602176	1056	864
7733248	800	736
7864320	1856	1792
7995392	1280	1280
8126464	976	960
8257536	1232	1232
8388608	1744	1712
8650752	1552	1552
8912896	1872	1872
9175040	1152	1152
9437184	1696	1680
9699328	1344	1312
9961472	960	944
10223616	832	800
10485760	848	816
10747904	576	544
11010048	624	576
11272192	1136	1136
11534336	1600	1568
11796480	1136	1136
12058624	1008	992
12320768	848	848
12582912	816	816
12845056	1024	1024
13107200	1296	1296
13369344	720	720
13631488	528	512
13893632	288	288
14155776	704	704
14417920	288	288
14680064	656	640
14942208	320	320
15204352	848	848
15466496	288	288
15728640	240	240
15990784	256	256
16252928	656	640
16515072	384	384
16777216	1072	1072
17301504	1008	1008
17825792	976	976
18350080	1632	1632
18874368	320	320
19398656	512	512
19922944	832	560
20447232	816	816
20971520	720	720
21495808	368	368
22020096	336	336
22544384	864	864
23068672	864	864
23592960	912	912
24117248	1104	1104
24641536	432	240
25165824	432	432
25690112	176	176
26214400	688	416
26738688	208	192
27262976	80	80
27787264	400	400
28311552	640	640
28835840	160	160
29360128	256	256
29884416	160	160
30408704	208	208
30932992	944	688
31457280	672	640
31981568	176	176
32505856	384	384
33030144	144	144
33554432	672	672
34603008	464	272
35651584	432	384
36700160	432	240
37748736	528	528
38797312	704	496
39845888	208	160
40894464	704	448
41943040	64	64
42991616	176	176
44040192	256	256
45088768	352	96
46137344	768	768
47185920	240	240
48234496	704	416
49283072	368	368
50331648	96	96
51380224	112	112
52428800	288	112
53477376	48	48
54525952	80	80
55574528	128	128
56623104	112	112
57671680	96	96
58720256	496	64
59768832	352	352
60817408	288	288
61865984	64	64
62914560	720	400
63963136	16	0
65011712	96	96
66060288	16	16
67108864	480	480
69206016	256	256
71303168	912	912
73400320	320	80
75497472	80	80
77594624	416	416
79691776	464	112
81788928	80	80
83886080	96	96
85983232	64	64
88080384	80	80
90177536	432	128
92274688	208	16
94371840	32	32
96468992	32	32
98566144	272	48
100663296	336	16
102760448	0	0
104857600	304	16
106954752	208	208
109051904	16	16
111149056	336	32
113246208	48	48
115343360	16	16
117440512	48	48
119537664	32	32
121634816	48	48
123731968	16	16
125829120	512	80
127926272	0	0
130023424	0	0
132120576	16	16
134217728	48	48
138412032	320	304
142606336	32	32
146800640	32	32
150994944	16	16
155189248	16	16
159383552	272	32
163577856	16	16
167772160	48	48
171966464	384	32
176160768	64	64
180355072	96	48
184549376	32	32
188743680	160	160
192937984	288	32
197132288	0	0
201326592	288	32
205520896	16	16
209715200	16	16
213909504	0	0
218103808	45696	15920
222298112	0	0
226492416	44336	15424
230686720	16	16
234881024	16	16
239075328	0	0
243269632	0	0
247463936	0	0
251658240	16	16
255852544	0	0
260046848	16	16
264241152	32	0
268435456	16	16
276824064	0	0
285212672	0	0
293601280	0	0
301989888	16	16
310378496	0	0
318767104	0	0
327155712	0	0
335544320	0	0
343932928	0	0
352321536	0	0
360710144	0	0
369098752	0	0
377487360	0	0
385875968	0	0
394264576	0	0
402653184	0	0
411041792	0	0
419430400	0	0
427819008	0	0
436207616	16	16
444596224	0	0
452984832	0	0
461373440	0	0
469762048	0	0
478150656	0	0
486539264	0	0
494927872	0	0
503316480	0	0
511705088	0	0
520093696	0	0
528482304	0	0
536870912	0	0
553648128	0	0
570425344	0	0
587202560	0	0
603979776	0	0
620756992	0	0
637534208	0	0
654311424	0	0
671088640	0	0
687865856	0	0
704643072	0	0
721420288	0	0
738197504	0	0
754974720	0	0
771751936	0	0
788529152	0	0
805306368	0	0
822083584	0	0
838860800	0	0
855638016	0	0
872415232	0	0
889192448	0	0
905969664	0	0
922746880	0	0
939524096	0	0
956301312	0	0
973078528	0	0
989855744	0	0
1006632960	0	0
1023410176	0	0
1040187392	0	0
1056964608	0	0
1073741824	0	0
1107296256	0	0
1140850688	0	0
1174405120	0	0
1207959552	0	0
1241513984	0	0
1275068416	0	0
1308622848	0	0
1342177280	0	0
1375731712	0	0
1409286144	0	0
1442840576	0	0
1476395008	0	0
1509949440	0	0
1543503872	0	0
1577058304	0	0
1610612736	0	0
1644167168	0	0
1677721600	0	0
1711276032	0	0
1744830464	0	0
1778384896	0	0
1811939328	0	0
1845493760	0	0
1879048192	0	0
1912602624	0	0
1946157056	0	0
1979711488	0	0
2013265920	0	0
2046820352	0	0
2080374784	0	0
2113929216	0	0
2147483648	0	0
2214592512	0	0
2281701376	0	0
2348810240	0	0
2415919104	0	0
2483027968	0	0
2550136832	0	0
2617245696	0	0
2684354560	0	0
2751463424	0	0
2818572288	0	0
2885681152	0	0
2952790016	0	0
3019898880	0	0
3087007744	0	0
3154116608	0	0
3221225472	0	0
3288334336	0	0
3355443200	0	0
3422552064	0	0
3489660928	0	0
3556769792	0	0
3623878656	0	0
3690987520	0	0
3758096384	0	0
3825205248	0	0
3892314112	0	0
3959422976	0	0
4026531840	0	0
4093640704	0	0
4160749568	0	0
4227858432	0	0
~~~~~~~~~~Reuse Distance Profiler output end~~~~~~~~~~

DRAM Statistics
 CHANNEL 0
 RQ ROW_BUFFER_HIT:       5976  ROW_BUFFER_MISS:     115644
 DBUS AVG_CONGESTED_CYCLE:    3.97864
 WQ ROW_BUFFER_HIT:       5173  ROW_BUFFER_MISS:      60796  FULL:          0


CPU 0 Branch Prediction Accuracy: 85.3236% MPKI: 23.9766 Average ROB Occupancy at Mispredict: 16.1737
Branch type MPKI
BRANCH_DIRECT_JUMP: 6e-06
BRANCH_INDIRECT: 0.000648667
BRANCH_CONDITIONAL: 23.9759
BRANCH_DIRECT_CALL: 6.66667e-07
BRANCH_INDIRECT_CALL: 1.4e-05
BRANCH_RETURN: 1.46667e-05

