
*** ChampSim Multicore Out-of-Order Simulator ***

Warmup Instructions: 500000000
Simulation Instructions: 1500000000
Number of CPUs: 1
Off-chip DRAM Size: 4 GiB Channels: 1 Width: 64-bit Data Rate: 3200 MT/s

VirtualMemory physical capacity: 8588881920 num_ppages: 2096895
VirtualMemory page size: 4096 log2_page_size: 12

CPU 0 runs traces/641.leela_s-862B.champsimtrace.xz
CPU 0 Bimodal branch predictor
Basic BTB sets: 1024 ways: 8 indirect buffer size: 4096 RAS size: 64
Initializing LRU.
Initializing LRU.
Initializing LRU.
Initializing LRU.
Initializing rdLRU.
Initializing LRU.
Initializing LRU.
Heartbeat CPU 0 instructions: 10000002 cycles: 2508171 heartbeat IPC: 3.98697 cumulative IPC: 3.98697 (Simulation time: 0 hr 0 min 51 sec) 
Heartbeat CPU 0 instructions: 20000002 cycles: 5016860 heartbeat IPC: 3.98615 cumulative IPC: 3.98656 (Simulation time: 0 hr 1 min 48 sec) 
Heartbeat CPU 0 instructions: 30000003 cycles: 7525584 heartbeat IPC: 3.98609 cumulative IPC: 3.9864 (Simulation time: 0 hr 2 min 34 sec) 
Heartbeat CPU 0 instructions: 40000003 cycles: 10033598 heartbeat IPC: 3.98722 cumulative IPC: 3.98661 (Simulation time: 0 hr 3 min 29 sec) 
Heartbeat CPU 0 instructions: 50000003 cycles: 12541631 heartbeat IPC: 3.98719 cumulative IPC: 3.98672 (Simulation time: 0 hr 4 min 21 sec) 
Heartbeat CPU 0 instructions: 60000002 cycles: 15050980 heartbeat IPC: 3.9851 cumulative IPC: 3.98645 (Simulation time: 0 hr 5 min 6 sec) 
Heartbeat CPU 0 instructions: 70000001 cycles: 17559791 heartbeat IPC: 3.98595 cumulative IPC: 3.98638 (Simulation time: 0 hr 5 min 56 sec) 
Heartbeat CPU 0 instructions: 80000000 cycles: 20068436 heartbeat IPC: 3.98622 cumulative IPC: 3.98636 (Simulation time: 0 hr 6 min 46 sec) 
Heartbeat CPU 0 instructions: 90000002 cycles: 22576437 heartbeat IPC: 3.98724 cumulative IPC: 3.98646 (Simulation time: 0 hr 7 min 37 sec) 
Heartbeat CPU 0 instructions: 100000000 cycles: 25084411 heartbeat IPC: 3.98728 cumulative IPC: 3.98654 (Simulation time: 0 hr 8 min 22 sec) 
Heartbeat CPU 0 instructions: 110000002 cycles: 27593051 heartbeat IPC: 3.98622 cumulative IPC: 3.98651 (Simulation time: 0 hr 9 min 8 sec) 
Heartbeat CPU 0 instructions: 120000001 cycles: 30101026 heartbeat IPC: 3.98728 cumulative IPC: 3.98658 (Simulation time: 0 hr 9 min 54 sec) 
Heartbeat CPU 0 instructions: 130000002 cycles: 32609712 heartbeat IPC: 3.98615 cumulative IPC: 3.98654 (Simulation time: 0 hr 10 min 46 sec) 
Heartbeat CPU 0 instructions: 140000000 cycles: 35118376 heartbeat IPC: 3.98618 cumulative IPC: 3.98652 (Simulation time: 0 hr 11 min 38 sec) 
Heartbeat CPU 0 instructions: 150000002 cycles: 37627129 heartbeat IPC: 3.98604 cumulative IPC: 3.98649 (Simulation time: 0 hr 12 min 34 sec) 
Heartbeat CPU 0 instructions: 160000000 cycles: 40135174 heartbeat IPC: 3.98717 cumulative IPC: 3.98653 (Simulation time: 0 hr 13 min 22 sec) 
Heartbeat CPU 0 instructions: 170000001 cycles: 42643835 heartbeat IPC: 3.98619 cumulative IPC: 3.98651 (Simulation time: 0 hr 14 min 3 sec) 
Heartbeat CPU 0 instructions: 180000002 cycles: 45153159 heartbeat IPC: 3.98514 cumulative IPC: 3.98643 (Simulation time: 0 hr 14 min 53 sec) 
Heartbeat CPU 0 instructions: 190000002 cycles: 47661797 heartbeat IPC: 3.98623 cumulative IPC: 3.98642 (Simulation time: 0 hr 15 min 45 sec) 
Heartbeat CPU 0 instructions: 200000002 cycles: 50169808 heartbeat IPC: 3.98722 cumulative IPC: 3.98646 (Simulation time: 0 hr 16 min 33 sec) 
Heartbeat CPU 0 instructions: 210000002 cycles: 52678489 heartbeat IPC: 3.98616 cumulative IPC: 3.98645 (Simulation time: 0 hr 17 min 31 sec) 
Heartbeat CPU 0 instructions: 220000000 cycles: 55187168 heartbeat IPC: 3.98616 cumulative IPC: 3.98643 (Simulation time: 0 hr 18 min 22 sec) 
Heartbeat CPU 0 instructions: 230000003 cycles: 57695850 heartbeat IPC: 3.98616 cumulative IPC: 3.98642 (Simulation time: 0 hr 19 min 12 sec) 
Heartbeat CPU 0 instructions: 240000002 cycles: 60204545 heartbeat IPC: 3.98614 cumulative IPC: 3.98641 (Simulation time: 0 hr 20 min 11 sec) 
Heartbeat CPU 0 instructions: 250000003 cycles: 62713227 heartbeat IPC: 3.98616 cumulative IPC: 3.9864 (Simulation time: 0 hr 21 min 9 sec) 
Heartbeat CPU 0 instructions: 260000003 cycles: 65220571 heartbeat IPC: 3.98828 cumulative IPC: 3.98647 (Simulation time: 0 hr 22 min 6 sec) 
Heartbeat CPU 0 instructions: 270000002 cycles: 67729253 heartbeat IPC: 3.98616 cumulative IPC: 3.98646 (Simulation time: 0 hr 22 min 48 sec) 
Heartbeat CPU 0 instructions: 280000003 cycles: 70237266 heartbeat IPC: 3.98722 cumulative IPC: 3.98649 (Simulation time: 0 hr 23 min 29 sec) 
Heartbeat CPU 0 instructions: 290000001 cycles: 72746159 heartbeat IPC: 3.98582 cumulative IPC: 3.98646 (Simulation time: 0 hr 24 min 21 sec) 
Heartbeat CPU 0 instructions: 300000001 cycles: 75254840 heartbeat IPC: 3.98616 cumulative IPC: 3.98645 (Simulation time: 0 hr 24 min 57 sec) 
Heartbeat CPU 0 instructions: 310000000 cycles: 77763520 heartbeat IPC: 3.98616 cumulative IPC: 3.98644 (Simulation time: 0 hr 25 min 44 sec) 
Heartbeat CPU 0 instructions: 320000003 cycles: 80272227 heartbeat IPC: 3.98612 cumulative IPC: 3.98643 (Simulation time: 0 hr 26 min 38 sec) 
Heartbeat CPU 0 instructions: 330000003 cycles: 82780904 heartbeat IPC: 3.98616 cumulative IPC: 3.98643 (Simulation time: 0 hr 27 min 16 sec) 
Heartbeat CPU 0 instructions: 340000000 cycles: 85289581 heartbeat IPC: 3.98616 cumulative IPC: 3.98642 (Simulation time: 0 hr 27 min 49 sec) 
Heartbeat CPU 0 instructions: 350000001 cycles: 87797657 heartbeat IPC: 3.98712 cumulative IPC: 3.98644 (Simulation time: 0 hr 28 min 42 sec) 
Heartbeat CPU 0 instructions: 360000004 cycles: 90306480 heartbeat IPC: 3.98593 cumulative IPC: 3.98642 (Simulation time: 0 hr 29 min 29 sec) 
Heartbeat CPU 0 instructions: 370000001 cycles: 92815178 heartbeat IPC: 3.98613 cumulative IPC: 3.98642 (Simulation time: 0 hr 30 min 4 sec) 
Heartbeat CPU 0 instructions: 380000001 cycles: 95323883 heartbeat IPC: 3.98612 cumulative IPC: 3.98641 (Simulation time: 0 hr 30 min 55 sec) 
Heartbeat CPU 0 instructions: 390000003 cycles: 97832585 heartbeat IPC: 3.98613 cumulative IPC: 3.9864 (Simulation time: 0 hr 31 min 53 sec) 
Heartbeat CPU 0 instructions: 400000000 cycles: 100341273 heartbeat IPC: 3.98615 cumulative IPC: 3.9864 (Simulation time: 0 hr 32 min 42 sec) 
Heartbeat CPU 0 instructions: 410000002 cycles: 102849953 heartbeat IPC: 3.98616 cumulative IPC: 3.98639 (Simulation time: 0 hr 33 min 39 sec) 
Heartbeat CPU 0 instructions: 420000003 cycles: 105358709 heartbeat IPC: 3.98604 cumulative IPC: 3.98638 (Simulation time: 0 hr 34 min 29 sec) 
Heartbeat CPU 0 instructions: 430000001 cycles: 107867539 heartbeat IPC: 3.98592 cumulative IPC: 3.98637 (Simulation time: 0 hr 35 min 15 sec) 
Heartbeat CPU 0 instructions: 440000002 cycles: 110375655 heartbeat IPC: 3.98706 cumulative IPC: 3.98639 (Simulation time: 0 hr 36 min 2 sec) 
Heartbeat CPU 0 instructions: 450000002 cycles: 112883729 heartbeat IPC: 3.98712 cumulative IPC: 3.9864 (Simulation time: 0 hr 36 min 44 sec) 
Heartbeat CPU 0 instructions: 460000002 cycles: 115392409 heartbeat IPC: 3.98616 cumulative IPC: 3.9864 (Simulation time: 0 hr 37 min 27 sec) 
Heartbeat CPU 0 instructions: 470000000 cycles: 118091827 heartbeat IPC: 3.7045 cumulative IPC: 3.97995 (Simulation time: 0 hr 38 min 27 sec) 
Heartbeat CPU 0 instructions: 480000001 cycles: 120600514 heartbeat IPC: 3.98615 cumulative IPC: 3.98008 (Simulation time: 0 hr 39 min 15 sec) 
Heartbeat CPU 0 instructions: 490000000 cycles: 123108554 heartbeat IPC: 3.98718 cumulative IPC: 3.98023 (Simulation time: 0 hr 39 min 55 sec) 
Heartbeat CPU 0 instructions: 500000003 cycles: 125616577 heartbeat IPC: 3.98721 cumulative IPC: 3.98037 (Simulation time: 0 hr 40 min 39 sec) 

Warmup complete CPU 0 instructions: 500000003 cycles: 125616577 (Simulation time: 0 hr 40 min 39 sec) 

Heartbeat CPU 0 instructions: 510000000 cycles: 135375103 heartbeat IPC: 1.02474 cumulative IPC: 1.02474 (Simulation time: 0 hr 41 min 39 sec) 
Heartbeat CPU 0 instructions: 520000001 cycles: 145186751 heartbeat IPC: 1.0192 cumulative IPC: 1.02196 (Simulation time: 0 hr 42 min 27 sec) 
Heartbeat CPU 0 instructions: 530000001 cycles: 155021045 heartbeat IPC: 1.01685 cumulative IPC: 1.02025 (Simulation time: 0 hr 43 min 12 sec) 
Heartbeat CPU 0 instructions: 540000000 cycles: 164807377 heartbeat IPC: 1.02183 cumulative IPC: 1.02065 (Simulation time: 0 hr 44 min 9 sec) 
Heartbeat CPU 0 instructions: 550000000 cycles: 174553816 heartbeat IPC: 1.02602 cumulative IPC: 1.02172 (Simulation time: 0 hr 45 min 3 sec) 
Heartbeat CPU 0 instructions: 560000001 cycles: 184382446 heartbeat IPC: 1.01744 cumulative IPC: 1.021 (Simulation time: 0 hr 45 min 54 sec) 
Heartbeat CPU 0 instructions: 570000003 cycles: 194222918 heartbeat IPC: 1.01621 cumulative IPC: 1.02031 (Simulation time: 0 hr 46 min 45 sec) 
Heartbeat CPU 0 instructions: 580000002 cycles: 204125290 heartbeat IPC: 1.00986 cumulative IPC: 1.019 (Simulation time: 0 hr 47 min 40 sec) 
Heartbeat CPU 0 instructions: 590000001 cycles: 213915605 heartbeat IPC: 1.02142 cumulative IPC: 1.01926 (Simulation time: 0 hr 48 min 32 sec) 
Heartbeat CPU 0 instructions: 600000000 cycles: 223682092 heartbeat IPC: 1.02391 cumulative IPC: 1.01973 (Simulation time: 0 hr 49 min 33 sec) 
Heartbeat CPU 0 instructions: 610000001 cycles: 233440293 heartbeat IPC: 1.02478 cumulative IPC: 1.02018 (Simulation time: 0 hr 50 min 13 sec) 
Heartbeat CPU 0 instructions: 620000004 cycles: 243270577 heartbeat IPC: 1.01726 cumulative IPC: 1.01994 (Simulation time: 0 hr 51 min 4 sec) 
Heartbeat CPU 0 instructions: 630000001 cycles: 253112160 heartbeat IPC: 1.0161 cumulative IPC: 1.01964 (Simulation time: 0 hr 51 min 54 sec) 
Heartbeat CPU 0 instructions: 640000000 cycles: 262931103 heartbeat IPC: 1.01844 cumulative IPC: 1.01956 (Simulation time: 0 hr 52 min 42 sec) 
Heartbeat CPU 0 instructions: 650000000 cycles: 272756433 heartbeat IPC: 1.01778 cumulative IPC: 1.01944 (Simulation time: 0 hr 53 min 35 sec) 
Heartbeat CPU 0 instructions: 660000002 cycles: 282536238 heartbeat IPC: 1.02252 cumulative IPC: 1.01963 (Simulation time: 0 hr 54 min 20 sec) 
Heartbeat CPU 0 instructions: 670000002 cycles: 292343000 heartbeat IPC: 1.0197 cumulative IPC: 1.01963 (Simulation time: 0 hr 54 min 58 sec) 
Heartbeat CPU 0 instructions: 680000001 cycles: 302143172 heartbeat IPC: 1.02039 cumulative IPC: 1.01968 (Simulation time: 0 hr 55 min 54 sec) 
Heartbeat CPU 0 instructions: 690000000 cycles: 311909131 heartbeat IPC: 1.02396 cumulative IPC: 1.0199 (Simulation time: 0 hr 56 min 39 sec) 
Heartbeat CPU 0 instructions: 700000000 cycles: 321637375 heartbeat IPC: 1.02793 cumulative IPC: 1.0203 (Simulation time: 0 hr 57 min 33 sec) 
Heartbeat CPU 0 instructions: 710000001 cycles: 331533132 heartbeat IPC: 1.01053 cumulative IPC: 1.01983 (Simulation time: 0 hr 58 min 27 sec) 
Heartbeat CPU 0 instructions: 720000000 cycles: 341422961 heartbeat IPC: 1.01114 cumulative IPC: 1.01943 (Simulation time: 0 hr 59 min 16 sec) 
Heartbeat CPU 0 instructions: 730000002 cycles: 351221821 heartbeat IPC: 1.02053 cumulative IPC: 1.01948 (Simulation time: 1 hr 0 min 9 sec) 
Heartbeat CPU 0 instructions: 740000001 cycles: 361072152 heartbeat IPC: 1.01519 cumulative IPC: 1.0193 (Simulation time: 1 hr 1 min 10 sec) 
Heartbeat CPU 0 instructions: 750000000 cycles: 370884411 heartbeat IPC: 1.01913 cumulative IPC: 1.01929 (Simulation time: 1 hr 2 min 4 sec) 
Heartbeat CPU 0 instructions: 760000000 cycles: 380706992 heartbeat IPC: 1.01806 cumulative IPC: 1.01925 (Simulation time: 1 hr 2 min 44 sec) 
Heartbeat CPU 0 instructions: 770000001 cycles: 390508672 heartbeat IPC: 1.02023 cumulative IPC: 1.01928 (Simulation time: 1 hr 3 min 30 sec) 
Heartbeat CPU 0 instructions: 780000003 cycles: 400391190 heartbeat IPC: 1.01189 cumulative IPC: 1.01902 (Simulation time: 1 hr 4 min 15 sec) 
Heartbeat CPU 0 instructions: 790000003 cycles: 410198041 heartbeat IPC: 1.0197 cumulative IPC: 1.01904 (Simulation time: 1 hr 5 min 16 sec) 
Heartbeat CPU 0 instructions: 800000002 cycles: 420093261 heartbeat IPC: 1.01059 cumulative IPC: 1.01876 (Simulation time: 1 hr 6 min 1 sec) 
Heartbeat CPU 0 instructions: 810000000 cycles: 429938551 heartbeat IPC: 1.01571 cumulative IPC: 1.01866 (Simulation time: 1 hr 6 min 49 sec) 
Heartbeat CPU 0 instructions: 820000003 cycles: 439717473 heartbeat IPC: 1.02261 cumulative IPC: 1.01878 (Simulation time: 1 hr 7 min 25 sec) 
Heartbeat CPU 0 instructions: 830000002 cycles: 449495738 heartbeat IPC: 1.02268 cumulative IPC: 1.0189 (Simulation time: 1 hr 8 min 1 sec) 
Heartbeat CPU 0 instructions: 840000001 cycles: 459322784 heartbeat IPC: 1.0176 cumulative IPC: 1.01886 (Simulation time: 1 hr 8 min 52 sec) 
Heartbeat CPU 0 instructions: 850000004 cycles: 469141290 heartbeat IPC: 1.01849 cumulative IPC: 1.01885 (Simulation time: 1 hr 9 min 50 sec) 
Heartbeat CPU 0 instructions: 860000002 cycles: 478924917 heartbeat IPC: 1.02212 cumulative IPC: 1.01894 (Simulation time: 1 hr 10 min 37 sec) 
Heartbeat CPU 0 instructions: 870000004 cycles: 488719030 heartbeat IPC: 1.02102 cumulative IPC: 1.019 (Simulation time: 1 hr 11 min 34 sec) 
Heartbeat CPU 0 instructions: 880000002 cycles: 498579027 heartbeat IPC: 1.0142 cumulative IPC: 1.01887 (Simulation time: 1 hr 12 min 32 sec) 
Heartbeat CPU 0 instructions: 890000003 cycles: 508412848 heartbeat IPC: 1.0169 cumulative IPC: 1.01882 (Simulation time: 1 hr 13 min 30 sec) 
Heartbeat CPU 0 instructions: 900000000 cycles: 518194973 heartbeat IPC: 1.02227 cumulative IPC: 1.0189 (Simulation time: 1 hr 14 min 30 sec) 
Heartbeat CPU 0 instructions: 910000003 cycles: 527949995 heartbeat IPC: 1.02511 cumulative IPC: 1.01906 (Simulation time: 1 hr 15 min 28 sec) 
Heartbeat CPU 0 instructions: 920000000 cycles: 537805105 heartbeat IPC: 1.0147 cumulative IPC: 1.01895 (Simulation time: 1 hr 16 min 25 sec) 
Heartbeat CPU 0 instructions: 930000001 cycles: 547631934 heartbeat IPC: 1.01762 cumulative IPC: 1.01892 (Simulation time: 1 hr 17 min 22 sec) 
Heartbeat CPU 0 instructions: 940000004 cycles: 557391745 heartbeat IPC: 1.02461 cumulative IPC: 1.01905 (Simulation time: 1 hr 18 min 13 sec) 
Heartbeat CPU 0 instructions: 950000004 cycles: 567165813 heartbeat IPC: 1.02312 cumulative IPC: 1.01914 (Simulation time: 1 hr 19 min 5 sec) 
Heartbeat CPU 0 instructions: 960000000 cycles: 576949155 heartbeat IPC: 1.02215 cumulative IPC: 1.0192 (Simulation time: 1 hr 19 min 58 sec) 
Heartbeat CPU 0 instructions: 970000002 cycles: 586742180 heartbeat IPC: 1.02114 cumulative IPC: 1.01925 (Simulation time: 1 hr 20 min 46 sec) 
Heartbeat CPU 0 instructions: 980000003 cycles: 596570050 heartbeat IPC: 1.01751 cumulative IPC: 1.01921 (Simulation time: 1 hr 21 min 47 sec) 
Heartbeat CPU 0 instructions: 990000001 cycles: 606345302 heartbeat IPC: 1.02299 cumulative IPC: 1.01929 (Simulation time: 1 hr 22 min 44 sec) 
Heartbeat CPU 0 instructions: 1000000001 cycles: 616138208 heartbeat IPC: 1.02115 cumulative IPC: 1.01932 (Simulation time: 1 hr 23 min 33 sec) 
Heartbeat CPU 0 instructions: 1010000004 cycles: 626077667 heartbeat IPC: 1.00609 cumulative IPC: 1.01906 (Simulation time: 1 hr 24 min 18 sec) 
Heartbeat CPU 0 instructions: 1020000003 cycles: 635906795 heartbeat IPC: 1.01738 cumulative IPC: 1.01903 (Simulation time: 1 hr 25 min 11 sec) 
Heartbeat CPU 0 instructions: 1030000000 cycles: 645725896 heartbeat IPC: 1.01842 cumulative IPC: 1.01902 (Simulation time: 1 hr 26 min 9 sec) 
Heartbeat CPU 0 instructions: 1040000001 cycles: 655518675 heartbeat IPC: 1.02116 cumulative IPC: 1.01906 (Simulation time: 1 hr 27 min 3 sec) 
Heartbeat CPU 0 instructions: 1050000001 cycles: 665293140 heartbeat IPC: 1.02307 cumulative IPC: 1.01913 (Simulation time: 1 hr 28 min 4 sec) 
Heartbeat CPU 0 instructions: 1060000001 cycles: 675145245 heartbeat IPC: 1.01501 cumulative IPC: 1.01906 (Simulation time: 1 hr 29 min 6 sec) 
Heartbeat CPU 0 instructions: 1070000001 cycles: 685024843 heartbeat IPC: 1.01219 cumulative IPC: 1.01893 (Simulation time: 1 hr 29 min 47 sec) 
Heartbeat CPU 0 instructions: 1080000001 cycles: 694930502 heartbeat IPC: 1.00952 cumulative IPC: 1.01877 (Simulation time: 1 hr 30 min 48 sec) 
Heartbeat CPU 0 instructions: 1090000000 cycles: 704678444 heartbeat IPC: 1.02586 cumulative IPC: 1.01889 (Simulation time: 1 hr 31 min 50 sec) 
Heartbeat CPU 0 instructions: 1100000002 cycles: 714491879 heartbeat IPC: 1.01901 cumulative IPC: 1.01889 (Simulation time: 1 hr 32 min 44 sec) 
Heartbeat CPU 0 instructions: 1110000002 cycles: 724231053 heartbeat IPC: 1.02678 cumulative IPC: 1.01902 (Simulation time: 1 hr 33 min 30 sec) 
Heartbeat CPU 0 instructions: 1120000003 cycles: 733967669 heartbeat IPC: 1.02705 cumulative IPC: 1.01915 (Simulation time: 1 hr 34 min 28 sec) 
Heartbeat CPU 0 instructions: 1130000003 cycles: 743797630 heartbeat IPC: 1.0173 cumulative IPC: 1.01912 (Simulation time: 1 hr 35 min 11 sec) 
Heartbeat CPU 0 instructions: 1140000001 cycles: 753553334 heartbeat IPC: 1.02504 cumulative IPC: 1.01921 (Simulation time: 1 hr 35 min 57 sec) 
Heartbeat CPU 0 instructions: 1150000000 cycles: 763339273 heartbeat IPC: 1.02187 cumulative IPC: 1.01925 (Simulation time: 1 hr 36 min 43 sec) 
Heartbeat CPU 0 instructions: 1160000000 cycles: 773158439 heartbeat IPC: 1.01842 cumulative IPC: 1.01924 (Simulation time: 1 hr 37 min 44 sec) 
Heartbeat CPU 0 instructions: 1170000000 cycles: 783055136 heartbeat IPC: 1.01044 cumulative IPC: 1.01911 (Simulation time: 1 hr 38 min 46 sec) 
Heartbeat CPU 0 instructions: 1180000001 cycles: 792889275 heartbeat IPC: 1.01687 cumulative IPC: 1.01907 (Simulation time: 1 hr 39 min 37 sec) 
Heartbeat CPU 0 instructions: 1190000000 cycles: 802716873 heartbeat IPC: 1.01754 cumulative IPC: 1.01905 (Simulation time: 1 hr 40 min 39 sec) 
Heartbeat CPU 0 instructions: 1200000003 cycles: 812506096 heartbeat IPC: 1.02153 cumulative IPC: 1.01909 (Simulation time: 1 hr 41 min 38 sec) 
Heartbeat CPU 0 instructions: 1210000000 cycles: 822286370 heartbeat IPC: 1.02247 cumulative IPC: 1.01913 (Simulation time: 1 hr 42 min 37 sec) 
Heartbeat CPU 0 instructions: 1220000001 cycles: 832039205 heartbeat IPC: 1.02534 cumulative IPC: 1.01922 (Simulation time: 1 hr 43 min 38 sec) 
Heartbeat CPU 0 instructions: 1230000000 cycles: 841848721 heartbeat IPC: 1.01942 cumulative IPC: 1.01922 (Simulation time: 1 hr 44 min 39 sec) 
Heartbeat CPU 0 instructions: 1240000004 cycles: 851704008 heartbeat IPC: 1.01468 cumulative IPC: 1.01916 (Simulation time: 1 hr 45 min 33 sec) 
Heartbeat CPU 0 instructions: 1250000004 cycles: 867114848 heartbeat IPC: 0.648894 cumulative IPC: 1.01147 (Simulation time: 1 hr 47 min 13 sec) 
Heartbeat CPU 0 instructions: 1260000001 cycles: 880868848 heartbeat IPC: 0.727061 cumulative IPC: 1.00629 (Simulation time: 1 hr 48 min 8 sec) 
Heartbeat CPU 0 instructions: 1270000004 cycles: 891068616 heartbeat IPC: 0.980415 cumulative IPC: 1.00594 (Simulation time: 1 hr 48 min 44 sec) 
Heartbeat CPU 0 instructions: 1280000000 cycles: 900975981 heartbeat IPC: 1.00935 cumulative IPC: 1.00599 (Simulation time: 1 hr 49 min 28 sec) 
Heartbeat CPU 0 instructions: 1290000000 cycles: 910785389 heartbeat IPC: 1.01943 cumulative IPC: 1.00615 (Simulation time: 1 hr 50 min 9 sec) 
Heartbeat CPU 0 instructions: 1300000001 cycles: 920656119 heartbeat IPC: 1.0131 cumulative IPC: 1.00624 (Simulation time: 1 hr 50 min 47 sec) 
Heartbeat CPU 0 instructions: 1310000000 cycles: 930434282 heartbeat IPC: 1.02269 cumulative IPC: 1.00644 (Simulation time: 1 hr 51 min 42 sec) 
Heartbeat CPU 0 instructions: 1320000004 cycles: 940206325 heartbeat IPC: 1.02333 cumulative IPC: 1.00664 (Simulation time: 1 hr 52 min 40 sec) 
Heartbeat CPU 0 instructions: 1330000004 cycles: 949987476 heartbeat IPC: 1.02237 cumulative IPC: 1.00683 (Simulation time: 1 hr 53 min 33 sec) 
Heartbeat CPU 0 instructions: 1340000002 cycles: 959775660 heartbeat IPC: 1.02164 cumulative IPC: 1.007 (Simulation time: 1 hr 54 min 26 sec) 
Heartbeat CPU 0 instructions: 1350000001 cycles: 969657170 heartbeat IPC: 1.01199 cumulative IPC: 1.00706 (Simulation time: 1 hr 55 min 23 sec) 
Heartbeat CPU 0 instructions: 1360000002 cycles: 979502640 heartbeat IPC: 1.0157 cumulative IPC: 1.00716 (Simulation time: 1 hr 56 min 18 sec) 
Heartbeat CPU 0 instructions: 1370000001 cycles: 989357276 heartbeat IPC: 1.01475 cumulative IPC: 1.00725 (Simulation time: 1 hr 57 min 9 sec) 
Heartbeat CPU 0 instructions: 1380000001 cycles: 999177515 heartbeat IPC: 1.01831 cumulative IPC: 1.00737 (Simulation time: 1 hr 58 min 5 sec) 
Heartbeat CPU 0 instructions: 1390000001 cycles: 1009001772 heartbeat IPC: 1.01789 cumulative IPC: 1.00749 (Simulation time: 1 hr 59 min 5 sec) 
Heartbeat CPU 0 instructions: 1400000001 cycles: 1018757483 heartbeat IPC: 1.02504 cumulative IPC: 1.00768 (Simulation time: 2 hr 0 min 6 sec) 
Heartbeat CPU 0 instructions: 1410000000 cycles: 1028557058 heartbeat IPC: 1.02045 cumulative IPC: 1.00782 (Simulation time: 2 hr 0 min 58 sec) 
Heartbeat CPU 0 instructions: 1420000003 cycles: 1038333332 heartbeat IPC: 1.02288 cumulative IPC: 1.00798 (Simulation time: 2 hr 1 min 43 sec) 
Heartbeat CPU 0 instructions: 1430000002 cycles: 1048130434 heartbeat IPC: 1.02071 cumulative IPC: 1.00811 (Simulation time: 2 hr 2 min 42 sec) 
Heartbeat CPU 0 instructions: 1440000001 cycles: 1057955263 heartbeat IPC: 1.01783 cumulative IPC: 1.00822 (Simulation time: 2 hr 3 min 43 sec) 
Heartbeat CPU 0 instructions: 1450000001 cycles: 1067775311 heartbeat IPC: 1.01832 cumulative IPC: 1.00832 (Simulation time: 2 hr 4 min 37 sec) 
Heartbeat CPU 0 instructions: 1460000000 cycles: 1077592484 heartbeat IPC: 1.01862 cumulative IPC: 1.00843 (Simulation time: 2 hr 5 min 25 sec) 
Heartbeat CPU 0 instructions: 1470000001 cycles: 1087401770 heartbeat IPC: 1.01944 cumulative IPC: 1.00854 (Simulation time: 2 hr 6 min 9 sec) 
Heartbeat CPU 0 instructions: 1480000004 cycles: 1097163519 heartbeat IPC: 1.02441 cumulative IPC: 1.0087 (Simulation time: 2 hr 7 min 9 sec) 
Heartbeat CPU 0 instructions: 1490000000 cycles: 1106992920 heartbeat IPC: 1.01736 cumulative IPC: 1.00879 (Simulation time: 2 hr 8 min 4 sec) 
Heartbeat CPU 0 instructions: 1500000002 cycles: 1116795546 heartbeat IPC: 1.02014 cumulative IPC: 1.0089 (Simulation time: 2 hr 8 min 50 sec) 
Heartbeat CPU 0 instructions: 1510000000 cycles: 1126659129 heartbeat IPC: 1.01383 cumulative IPC: 1.00895 (Simulation time: 2 hr 9 min 30 sec) 
Heartbeat CPU 0 instructions: 1520000000 cycles: 1136409838 heartbeat IPC: 1.02557 cumulative IPC: 1.00911 (Simulation time: 2 hr 10 min 12 sec) 
Heartbeat CPU 0 instructions: 1530000000 cycles: 1146247485 heartbeat IPC: 1.0165 cumulative IPC: 1.00918 (Simulation time: 2 hr 11 min 4 sec) 
Heartbeat CPU 0 instructions: 1540000001 cycles: 1156057347 heartbeat IPC: 1.01938 cumulative IPC: 1.00928 (Simulation time: 2 hr 11 min 56 sec) 
Heartbeat CPU 0 instructions: 1550000002 cycles: 1165948368 heartbeat IPC: 1.01102 cumulative IPC: 1.00929 (Simulation time: 2 hr 12 min 39 sec) 
Heartbeat CPU 0 instructions: 1560000003 cycles: 1175824703 heartbeat IPC: 1.01252 cumulative IPC: 1.00932 (Simulation time: 2 hr 13 min 27 sec) 
Heartbeat CPU 0 instructions: 1570000000 cycles: 1185593847 heartbeat IPC: 1.02363 cumulative IPC: 1.00946 (Simulation time: 2 hr 14 min 19 sec) 
Heartbeat CPU 0 instructions: 1580000000 cycles: 1195439526 heartbeat IPC: 1.01567 cumulative IPC: 1.00951 (Simulation time: 2 hr 15 min 3 sec) 
Heartbeat CPU 0 instructions: 1590000003 cycles: 1205216026 heartbeat IPC: 1.02286 cumulative IPC: 1.00963 (Simulation time: 2 hr 16 min 3 sec) 
Heartbeat CPU 0 instructions: 1600000002 cycles: 1214948206 heartbeat IPC: 1.02752 cumulative IPC: 1.00979 (Simulation time: 2 hr 16 min 58 sec) 
Heartbeat CPU 0 instructions: 1610000000 cycles: 1224836411 heartbeat IPC: 1.01131 cumulative IPC: 1.00981 (Simulation time: 2 hr 17 min 46 sec) 
Heartbeat CPU 0 instructions: 1620000000 cycles: 1234635600 heartbeat IPC: 1.02049 cumulative IPC: 1.0099 (Simulation time: 2 hr 18 min 43 sec) 
Heartbeat CPU 0 instructions: 1630000003 cycles: 1244502134 heartbeat IPC: 1.01353 cumulative IPC: 1.00993 (Simulation time: 2 hr 19 min 36 sec) 
Heartbeat CPU 0 instructions: 1640000002 cycles: 1254367088 heartbeat IPC: 1.01369 cumulative IPC: 1.00997 (Simulation time: 2 hr 20 min 35 sec) 
Heartbeat CPU 0 instructions: 1650000000 cycles: 1264125955 heartbeat IPC: 1.02471 cumulative IPC: 1.01009 (Simulation time: 2 hr 21 min 30 sec) 
Heartbeat CPU 0 instructions: 1660000001 cycles: 1273998312 heartbeat IPC: 1.01293 cumulative IPC: 1.01012 (Simulation time: 2 hr 22 min 32 sec) 
Heartbeat CPU 0 instructions: 1670000001 cycles: 1283790681 heartbeat IPC: 1.0212 cumulative IPC: 1.01021 (Simulation time: 2 hr 23 min 33 sec) 
Heartbeat CPU 0 instructions: 1680000000 cycles: 1293561084 heartbeat IPC: 1.0235 cumulative IPC: 1.01032 (Simulation time: 2 hr 24 min 29 sec) 
Heartbeat CPU 0 instructions: 1690000000 cycles: 1303346215 heartbeat IPC: 1.02196 cumulative IPC: 1.01042 (Simulation time: 2 hr 25 min 14 sec) 
Heartbeat CPU 0 instructions: 1700000000 cycles: 1313137217 heartbeat IPC: 1.02135 cumulative IPC: 1.01051 (Simulation time: 2 hr 26 min 11 sec) 
Heartbeat CPU 0 instructions: 1710000003 cycles: 1322970623 heartbeat IPC: 1.01694 cumulative IPC: 1.01056 (Simulation time: 2 hr 27 min 12 sec) 
Heartbeat CPU 0 instructions: 1720000000 cycles: 1332751101 heartbeat IPC: 1.02244 cumulative IPC: 1.01066 (Simulation time: 2 hr 28 min 13 sec) 
Heartbeat CPU 0 instructions: 1730000000 cycles: 1342577722 heartbeat IPC: 1.01764 cumulative IPC: 1.01071 (Simulation time: 2 hr 29 min 14 sec) 
Heartbeat CPU 0 instructions: 1740000001 cycles: 1352414374 heartbeat IPC: 1.01661 cumulative IPC: 1.01076 (Simulation time: 2 hr 30 min 16 sec) 
Heartbeat CPU 0 instructions: 1750000001 cycles: 1362172618 heartbeat IPC: 1.02477 cumulative IPC: 1.01087 (Simulation time: 2 hr 30 min 54 sec) 
Heartbeat CPU 0 instructions: 1760000003 cycles: 1371962017 heartbeat IPC: 1.02151 cumulative IPC: 1.01096 (Simulation time: 2 hr 31 min 30 sec) 
Heartbeat CPU 0 instructions: 1770000000 cycles: 1381729022 heartbeat IPC: 1.02385 cumulative IPC: 1.01106 (Simulation time: 2 hr 32 min 6 sec) 
Heartbeat CPU 0 instructions: 1780000000 cycles: 1391541570 heartbeat IPC: 1.0191 cumulative IPC: 1.01112 (Simulation time: 2 hr 32 min 42 sec) 
Heartbeat CPU 0 instructions: 1790000001 cycles: 1401299418 heartbeat IPC: 1.02482 cumulative IPC: 1.01122 (Simulation time: 2 hr 33 min 17 sec) 
Heartbeat CPU 0 instructions: 1800000000 cycles: 1411098964 heartbeat IPC: 1.02046 cumulative IPC: 1.01129 (Simulation time: 2 hr 33 min 52 sec) 
Heartbeat CPU 0 instructions: 1810000000 cycles: 1420863796 heartbeat IPC: 1.02408 cumulative IPC: 1.01139 (Simulation time: 2 hr 34 min 27 sec) 
Heartbeat CPU 0 instructions: 1820000002 cycles: 1430613553 heartbeat IPC: 1.02567 cumulative IPC: 1.0115 (Simulation time: 2 hr 35 min 2 sec) 
Heartbeat CPU 0 instructions: 1830000001 cycles: 1440474520 heartbeat IPC: 1.0141 cumulative IPC: 1.01152 (Simulation time: 2 hr 35 min 37 sec) 
Heartbeat CPU 0 instructions: 1840000000 cycles: 1450210401 heartbeat IPC: 1.02713 cumulative IPC: 1.01163 (Simulation time: 2 hr 36 min 12 sec) 
Heartbeat CPU 0 instructions: 1850000003 cycles: 1459980587 heartbeat IPC: 1.02352 cumulative IPC: 1.01172 (Simulation time: 2 hr 36 min 47 sec) 
Heartbeat CPU 0 instructions: 1860000003 cycles: 1469737903 heartbeat IPC: 1.02487 cumulative IPC: 1.01181 (Simulation time: 2 hr 37 min 22 sec) 
Heartbeat CPU 0 instructions: 1870000002 cycles: 1479564514 heartbeat IPC: 1.01764 cumulative IPC: 1.01186 (Simulation time: 2 hr 37 min 58 sec) 
Heartbeat CPU 0 instructions: 1880000002 cycles: 1489371410 heartbeat IPC: 1.01969 cumulative IPC: 1.01191 (Simulation time: 2 hr 38 min 41 sec) 
Heartbeat CPU 0 instructions: 1890000003 cycles: 1499212593 heartbeat IPC: 1.01614 cumulative IPC: 1.01194 (Simulation time: 2 hr 39 min 43 sec) 
Heartbeat CPU 0 instructions: 1900000000 cycles: 1508978816 heartbeat IPC: 1.02394 cumulative IPC: 1.01203 (Simulation time: 2 hr 40 min 44 sec) 
Heartbeat CPU 0 instructions: 1910000001 cycles: 1518766048 heartbeat IPC: 1.02174 cumulative IPC: 1.0121 (Simulation time: 2 hr 41 min 46 sec) 
Heartbeat CPU 0 instructions: 1920000002 cycles: 1528572622 heartbeat IPC: 1.01972 cumulative IPC: 1.01215 (Simulation time: 2 hr 42 min 26 sec) 
Heartbeat CPU 0 instructions: 1930000000 cycles: 1538407136 heartbeat IPC: 1.01683 cumulative IPC: 1.01218 (Simulation time: 2 hr 43 min 0 sec) 
Heartbeat CPU 0 instructions: 1940000000 cycles: 1548251449 heartbeat IPC: 1.01581 cumulative IPC: 1.01221 (Simulation time: 2 hr 43 min 35 sec) 
Heartbeat CPU 0 instructions: 1950000003 cycles: 1558071755 heartbeat IPC: 1.0183 cumulative IPC: 1.01225 (Simulation time: 2 hr 44 min 10 sec) 
Heartbeat CPU 0 instructions: 1960000001 cycles: 1567879062 heartbeat IPC: 1.01965 cumulative IPC: 1.0123 (Simulation time: 2 hr 44 min 44 sec) 
Heartbeat CPU 0 instructions: 1970000000 cycles: 1577590042 heartbeat IPC: 1.02976 cumulative IPC: 1.01242 (Simulation time: 2 hr 45 min 19 sec) 
Heartbeat CPU 0 instructions: 1980000002 cycles: 1587403653 heartbeat IPC: 1.01899 cumulative IPC: 1.01246 (Simulation time: 2 hr 45 min 53 sec) 
Heartbeat CPU 0 instructions: 1990000002 cycles: 1597144863 heartbeat IPC: 1.02657 cumulative IPC: 1.01255 (Simulation time: 2 hr 46 min 28 sec) 
*** Reached end of trace: traces/641.leela_s-862B.champsimtrace.xz
Heartbeat CPU 0 instructions: 2000000004 cycles: 1606909701 heartbeat IPC: 1.02408 cumulative IPC: 1.01263 (Simulation time: 2 hr 47 min 2 sec) 
Finished CPU 0 instructions: 1500000001 cycles: 1481293124 cumulative IPC: 1.01263 (Simulation time: 2 hr 47 min 2 sec) 

ChampSim completed all CPUs

Region of Interest Statistics

CPU 0 cumulative IPC: 1.01263 instructions: 1500000001 cycles: 1481293124
cpu0_DTLB TOTAL     ACCESS:  290837570  HIT:  290148721  MISS:     688849
cpu0_DTLB LOAD      ACCESS:  202572698  HIT:  201906520  MISS:     666178
cpu0_DTLB RFO       ACCESS:   88264872  HIT:   88242201  MISS:      22671
cpu0_DTLB PREFETCH  ACCESS:          0  HIT:          0  MISS:          0
cpu0_DTLB WRITEBACK ACCESS:          0  HIT:          0  MISS:          0
cpu0_DTLB TRANSLATION ACCESS:          0  HIT:          0  MISS:          0
cpu0_DTLB PREFETCH  REQUESTED:          0  ISSUED:          0  USEFUL:          0  USELESS:          0
cpu0_DTLB AVERAGE MISS LATENCY: 9.20868 cycles
cpu0_ITLB TOTAL     ACCESS:  168032791  HIT:  168032765  MISS:         26
cpu0_ITLB LOAD      ACCESS:  168032791  HIT:  168032765  MISS:         26
cpu0_ITLB RFO       ACCESS:          0  HIT:          0  MISS:          0
cpu0_ITLB PREFETCH  ACCESS:          0  HIT:          0  MISS:          0
cpu0_ITLB WRITEBACK ACCESS:          0  HIT:          0  MISS:          0
cpu0_ITLB TRANSLATION ACCESS:          0  HIT:          0  MISS:          0
cpu0_ITLB PREFETCH  REQUESTED:          0  ISSUED:          0  USEFUL:          0  USELESS:          0
cpu0_ITLB AVERAGE MISS LATENCY: 58.1923 cycles
cpu0_L1I TOTAL     ACCESS:   89793203  HIT:   89734356  MISS:      58847
cpu0_L1I LOAD      ACCESS:   89793203  HIT:   89734356  MISS:      58847
cpu0_L1I RFO       ACCESS:          0  HIT:          0  MISS:          0
cpu0_L1I PREFETCH  ACCESS:          0  HIT:          0  MISS:          0
cpu0_L1I WRITEBACK ACCESS:          0  HIT:          0  MISS:          0
cpu0_L1I TRANSLATION ACCESS:          0  HIT:          0  MISS:          0
cpu0_L1I PREFETCH  REQUESTED:          0  ISSUED:          0  USEFUL:          0  USELESS:          0
cpu0_L1I AVERAGE MISS LATENCY: 14.3549 cycles
cpu0_STLB TOTAL     ACCESS:     688875  HIT:     687532  MISS:       1343
cpu0_STLB LOAD      ACCESS:     666204  HIT:     665246  MISS:        958
cpu0_STLB RFO       ACCESS:      22671  HIT:      22286  MISS:        385
cpu0_STLB PREFETCH  ACCESS:          0  HIT:          0  MISS:          0
cpu0_STLB WRITEBACK ACCESS:          0  HIT:          0  MISS:          0
cpu0_STLB TRANSLATION ACCESS:          0  HIT:          0  MISS:          0
cpu0_STLB PREFETCH  REQUESTED:          0  ISSUED:          0  USEFUL:          0  USELESS:          0
cpu0_STLB AVERAGE MISS LATENCY: 107.228 cycles
cpu0_L1D TOTAL     ACCESS:  406188801  HIT:  403038903  MISS:    3149898
cpu0_L1D LOAD      ACCESS:  235370727  HIT:  232565511  MISS:    2805216
cpu0_L1D RFO       ACCESS:  170816732  HIT:  170472719  MISS:     344013
cpu0_L1D PREFETCH  ACCESS:          0  HIT:          0  MISS:          0
cpu0_L1D WRITEBACK ACCESS:          0  HIT:          0  MISS:          0
cpu0_L1D TRANSLATION ACCESS:       1342  HIT:        673  MISS:        669
cpu0_L1D PREFETCH  REQUESTED:          0  ISSUED:          0  USEFUL:          0  USELESS:          0
cpu0_L1D AVERAGE MISS LATENCY: 17.8116 cycles
cpu0_L2C TOTAL     ACCESS:    3822520  HIT:    3711707  MISS:     110813
cpu0_L2C LOAD      ACCESS:    2864054  HIT:    2794439  MISS:      69615
cpu0_L2C RFO       ACCESS:     343960  HIT:     302794  MISS:      41166
cpu0_L2C PREFETCH  ACCESS:          0  HIT:          0  MISS:          0
cpu0_L2C WRITEBACK ACCESS:     613837  HIT:     613813  MISS:         24
cpu0_L2C TRANSLATION ACCESS:        669  HIT:        661  MISS:          8
cpu0_L2C PREFETCH  REQUESTED:          0  ISSUED:          0  USEFUL:          0  USELESS:          0
cpu0_L2C AVERAGE MISS LATENCY: 195.104 cycles
LLC TOTAL     ACCESS:     158295  HIT:      75624  MISS:      82671
LLC LOAD      ACCESS:      69615  HIT:      23190  MISS:      46425
LLC RFO       ACCESS:      41166  HIT:       4951  MISS:      36215
LLC PREFETCH  ACCESS:          0  HIT:          0  MISS:          0
LLC WRITEBACK ACCESS:      47506  HIT:      47480  MISS:         26
LLC TRANSLATION ACCESS:          8  HIT:          3  MISS:          5
LLC PREFETCH  REQUESTED:          0  ISSUED:          0  USEFUL:          0  USELESS:          0
LLC AVERAGE MISS LATENCY: 233.376 cycles
~~~~~~~~~~Reuse Distance Profiler output~~~~~~~~~~
0	121538992	13530864
1	41956832	16876432
2	30068720	14378880
3	21445264	13391232
4	19694928	11260560
5	15326816	10843920
6	15174848	10235120
7	12479824	8448768
8	11639520	8600768
9	9642592	6866128
10	7644032	5402160
11	7566912	5202352
12	8139888	6388960
13	7282096	5501232
14	6866864	4972480
15	5719008	4389264
16	5827008	4398160
17	6604256	4618752
18	5465584	4150432
19	4990528	3854816
20	4306128	3512576
21	4005712	3207424
22	3929408	3169120
23	3589280	2817888
24	3444720	2802800
25	3618272	2675344
26	3162816	2524960
27	2783744	2216640
28	2416880	1994480
29	2324800	1905568
30	2440368	2015344
31	2345008	2012464
32	2600640	1919072
33	2090208	1780816
34	1826048	1556848
35	1757488	1486432
36	1669344	1396352
37	1488880	1272512
38	1405840	1170128
39	1362624	1200864
40	1581536	1090768
41	1295520	1158704
42	1282496	1163264
43	1229728	1091280
44	1169200	1004864
45	1031232	907440
46	971968	868912
47	1043504	941536
48	991792	884816
49	1029616	924096
50	958752	848112
51	972064	860688
52	989168	871168
53	964048	835072
54	989984	850384
55	1026896	878688
56	1084512	924656
57	1089792	928928
58	1165408	992064
59	1117488	942352
60	1098816	917744
61	1159024	976192
62	1160592	978672
63	1223376	1035216
64	2553888	2173520
66	2585504	2205216
68	2186000	1851056
70	1883968	1577536
72	1760256	1448336
74	1712080	1386240
76	1637568	1311536
78	1590016	1281680
80	1452912	1164208
82	1351808	1096944
84	1289776	1040736
86	1219520	968912
88	1149376	898560
90	1059712	822624
92	999728	761328
94	942608	730976
96	897616	691952
98	831952	660864
100	775200	633424
102	714352	596448
104	673344	569552
106	636016	549216
108	615392	539984
110	586976	523968
112	588736	530080
114	571312	516800
116	540656	491952
118	507200	461936
120	490832	449408
122	468288	425936
124	452656	412352
126	435088	394624
128	850064	771440
132	839424	761904
136	797856	723968
140	757856	690320
144	715280	654176
148	687648	631376
152	657472	599056
156	601056	544176
160	564816	509008
164	522400	467344
168	506176	448992
172	482464	425968
176	453456	397536
180	445616	387680
184	434320	376832
188	427296	369392
192	412608	355216
196	398832	348272
200	392896	346480
204	380048	338032
208	367584	329536
212	355648	320816
216	346528	312704
220	332624	301568
224	320720	290032
228	319488	288768
232	313872	283968
236	303728	273312
240	298320	265872
244	299712	265584
248	298320	262784
252	291680	252384
256	563872	494096
264	541664	479856
272	532896	476384
280	509664	457744
288	513152	458944
296	499920	444624
304	487568	431184
312	481824	422208
320	472752	410848
328	456928	394976
336	438256	377600
344	424448	368496
352	411696	354496
360	404192	345792
368	389104	328432
376	379488	317424
384	355232	298928
392	343184	290448
400	335712	285792
408	329312	280720
416	319936	268720
424	313088	259888
432	306672	252896
440	299456	247776
448	292304	243792
456	284368	237632
464	277424	231760
472	270912	224768
480	271056	225248
488	270224	223408
496	269456	222416
504	262576	217536
512	517504	432368
528	505344	420112
544	493600	410768
560	482848	406832
576	484816	406656
592	476544	403408
608	464768	393696
624	433360	366064
640	418448	356096
656	400448	342752
672	385952	333264
688	360592	310800
704	333984	289600
720	321440	280176
736	309456	270320
752	290576	253648
768	274336	242416
784	263728	233232
800	249680	222352
816	240176	216000
832	234624	211904
848	229520	206208
864	216608	195232
880	212928	192592
896	210320	191184
912	197584	178736
928	186448	169728
944	187408	170880
960	181328	164640
976	175024	159584
992	170352	154816
1008	165808	149120
1024	313856	283632
1056	306080	276912
1088	292768	261600
1120	282080	251968
1152	275424	245072
1184	270880	242288
1216	259088	231600
1248	245248	220192
1280	241504	215344
1312	232032	208128
1344	221248	198368
1376	212560	190048
1408	205504	185072
1440	199040	180384
1472	191744	173120
1504	180224	163296
1536	173728	157552
1568	167920	151584
1600	159824	145024
1632	156576	141520
1664	150368	136320
1696	144640	130736
1728	138416	125712
1760	133952	121024
1792	129936	117088
1824	128400	115856
1856	126080	112704
1888	120976	108576
1920	119600	107488
1952	117568	105632
1984	118512	105552
2016	117152	104496
2048	234240	207664
2112	222688	195600
2176	202896	181328
2240	194928	175680
2304	190592	169824
2368	176272	157264
2432	179968	159264
2496	173728	154752
2560	175568	156320
2624	175488	156688
2688	185856	168544
2752	190272	172240
2816	175600	158976
2880	208224	193088
2944	197744	183248
3008	187008	171936
3072	178288	163216
3136	164880	150144
3200	157536	140144
3264	161136	141152
3328	153376	134208
3392	149184	129568
3456	116304	96544
3520	102048	82192
3584	97040	79552
3648	95584	78160
3712	92304	73952
3776	89664	72032
3840	85472	70560
3904	83504	68480
3968	80352	66736
4032	78528	63776
4096	145712	123264
4224	137104	115680
4352	129024	107840
4480	125312	101536
4608	124176	97616
4736	118816	94384
4864	165824	139552
4992	200624	180032
5120	223600	203728
5248	211888	194944
5376	134176	117072
5504	96544	78896
5632	81248	64048
5760	76688	59776
5888	74688	57664
6016	75376	56400
6144	72992	54064
6272	73712	52192
6400	70080	50640
6528	66000	48016
6656	65952	48256
6784	64560	45792
6912	60784	42000
7040	54224	38880
7168	53456	39248
7296	51232	38208
7424	49904	36416
7552	48144	36224
7680	47888	35408
7808	45424	33296
7936	43600	32176
8064	43360	32096
8192	78544	57008
8448	75344	54688
8704	72576	51488
8960	71600	50080
9216	64864	46528
9472	62144	44320
9728	57328	41408
9984	54240	38496
10240	50208	35568
10496	48704	35152
10752	46272	33536
11008	45184	32416
11264	42304	30128
11520	41136	29328
11776	38224	26960
12032	38032	27056
12288	34672	24528
12544	34800	24368
12800	33856	23984
13056	31904	22448
13312	32016	22608
13568	30864	21888
13824	28992	21024
14080	27264	19920
14336	26880	19104
14592	25120	18080
14848	25536	18624
15104	24736	18064
15360	23664	17152
15616	21744	15696
15872	21520	15808
16128	20512	15056
16384	40432	30176
16896	38048	27424
17408	35392	26528
17920	33344	24960
18432	30864	24064
18944	31056	23696
19456	29632	22128
19968	27088	20880
20480	25648	19872
20992	24736	19168
21504	22880	17904
22016	22496	17968
22528	21488	16688
23040	21808	17200
23552	20592	16704
24064	18784	15568
24576	18416	14864
25088	18720	14976
25600	17040	13712
26112	16912	13872
26624	17216	14128
27136	15312	12544
27648	15376	12272
28160	14832	12576
28672	13520	11072
29184	13392	11232
29696	13472	11072
30208	12912	10928
30720	13072	10992
31232	12448	10480
31744	12016	10416
32256	10448	8960
32768	22448	19392
33792	19360	16752
34816	19632	17376
35840	18752	16352
36864	17504	15408
37888	17104	15376
38912	15536	13984
39936	16640	14832
40960	15040	13520
41984	13520	12464
43008	13120	12032
44032	12880	11824
45056	12096	11024
46080	11776	10880
47104	11248	10464
48128	11488	10608
49152	10880	9952
50176	9760	9168
51200	9680	9040
52224	9712	9088
53248	10176	9552
54272	9392	8720
55296	9200	8640
56320	8832	8320
57344	7728	7456
58368	9024	8528
59392	7904	7424
60416	7856	7392
61440	7584	7216
62464	7552	7152
63488	6816	6496
64512	6592	6304
65536	13440	12800
67584	13280	12656
69632	12832	12192
71680	12128	11632
73728	11440	11056
75776	10608	10320
77824	10624	10224
79872	9840	9504
81920	10128	9792
83968	10960	10592
86016	10272	9856
88064	9808	9536
90112	9568	9232
92160	8592	8304
94208	9712	9408
96256	9600	9408
98304	10112	9648
100352	9600	9008
102400	9744	9360
104448	9344	8992
106496	9552	9104
108544	9408	9136
110592	10112	9872
112640	9760	9568
114688	10224	9744
116736	10224	9776
118784	9344	8960
120832	10352	10032
122880	10592	10320
124928	10512	10224
126976	11008	10608
129024	10432	10128
131072	21632	20944
135168	25664	24704
139264	39792	38896
143360	26096	24896
147456	29152	27616
151552	32384	30400
155648	32176	30576
159744	40352	37792
163840	48832	45600
167936	61120	56464
172032	69232	64048
176128	80992	74384
180224	90064	82512
184320	99136	89536
188416	127296	116768
192512	138768	125200
196608	147072	132960
200704	147056	132528
204800	149472	135440
208896	132208	118912
212992	138384	126000
217088	130832	117568
221184	117856	105504
225280	105536	94848
229376	95360	85504
233472	82768	74928
237568	71024	64336
241664	60688	54464
245760	49872	45632
249856	41568	38208
253952	32048	28800
258048	29488	27792
262144	40224	37120
270336	28928	27264
278528	17632	16576
286720	11552	11184
294912	8656	8640
303104	9728	9536
311296	8208	8192
319488	8784	8784
327680	9008	9008
335872	8400	8400
344064	9664	9664
352256	9584	9568
360448	9536	9536
368640	10832	10832
376832	10272	10272
385024	10064	10064
393216	9824	9824
401408	10528	10528
409600	9872	9872
417792	9648	9648
425984	9472	9472
434176	8800	8800
442368	7440	7440
450560	7712	7712
458752	6880	6880
466944	6240	6240
475136	6224	6208
483328	5296	5280
491520	4624	4624
499712	4096	4064
507904	4144	4144
516096	4112	4112
524288	7952	7920
540672	7664	7600
557056	8176	8160
573440	7792	7792
589824	8336	8336
606208	9552	9552
622592	9440	9424
638976	8992	8976
655360	6912	6896
671744	7136	7120
688128	5840	5840
704512	5040	5024
720896	4992	4992
737280	3856	3840
753664	4064	4032
770048	4480	4480
786432	4656	4656
802816	4288	4272
819200	4896	4896
835584	4640	4640
851968	4752	4736
868352	3840	3840
884736	3952	3952
901120	3184	3184
917504	3136	3136
933888	2592	2576
950272	3104	3104
966656	3344	3344
983040	2752	2752
999424	2672	2672
1015808	2784	2784
1032192	2688	2688
1048576	6288	6288
1081344	5504	5504
1114112	4416	4400
1146880	3776	3776
1179648	3936	3936
1212416	3600	3584
1245184	3808	3808
1277952	4016	4016
1310720	3648	3648
1343488	3056	3040
1376256	3216	3216
1409024	2928	2928
1441792	2784	2784
1474560	3792	3776
1507328	2624	2608
1540096	2256	2256
1572864	2368	2352
1605632	2464	2464
1638400	2208	2208
1671168	3088	3072
1703936	1920	1920
1736704	2112	2112
1769472	1776	1776
1802240	2176	2144
1835008	1712	1712
1867776	1840	1824
1900544	1712	1712
1933312	1760	1760
1966080	1648	1648
1998848	1936	1920
2031616	2096	1984
2064384	1312	1296
2097152	3120	2992
2162688	2656	2656
2228224	2816	2816
2293760	2528	2512
2359296	2448	2448
2424832	2768	2768
2490368	3104	3104
2555904	2544	2528
2621440	2288	2272
2686976	2352	2336
2752512	2576	2576
2818048	2448	2432
2883584	2560	2560
2949120	2304	2304
3014656	2800	2800
3080192	1856	1840
3145728	1952	1952
3211264	2128	2112
3276800	2048	2048
3342336	1216	1216
3407872	1456	1456
3473408	1824	1808
3538944	880	880
3604480	1168	1168
3670016	1360	1360
3735552	1424	1424
3801088	896	880
3866624	1664	1648
3932160	880	880
3997696	816	816
4063232	864	864
4128768	896	880
4194304	1664	1664
4325376	1664	1648
4456448	1344	1344
4587520	1440	1424
4718592	1856	1856
4849664	1264	1264
4980736	1344	1344
5111808	1888	1888
5242880	1136	1136
5373952	1328	1328
5505024	944	944
5636096	928	928
5767168	960	960
5898240	1136	1136
6029312	1008	992
6160384	928	928
6291456	1088	1072
6422528	1104	880
6553600	1504	1504
6684672	832	832
6815744	864	848
6946816	1072	1056
7077888	784	784
7208960	1008	1008
7340032	976	976
7471104	464	464
7602176	688	672
7733248	896	896
7864320	528	528
7995392	576	576
8126464	688	688
8257536	480	480
8388608	1168	1072
8650752	1616	1520
8912896	1312	1296
9175040	1360	1360
9437184	848	848
9699328	1072	1072
9961472	1280	1264
10223616	1712	1712
10485760	1200	1200
10747904	816	816
11010048	1376	1376
11272192	1600	1600
11534336	976	976
11796480	640	640
12058624	960	960
12320768	848	848
12582912	640	640
12845056	832	832
13107200	688	688
13369344	384	384
13631488	272	272
13893632	480	480
14155776	976	976
14417920	384	368
14680064	880	880
14942208	1152	1152
15204352	832	832
15466496	400	384
15728640	672	656
15990784	480	464
16252928	256	256
16515072	224	224
16777216	672	576
17301504	928	768
17825792	832	832
18350080	576	576
18874368	592	592
19398656	1232	1232
19922944	352	352
20447232	512	512
20971520	1056	784
21495808	400	384
22020096	576	576
22544384	240	240
23068672	608	608
23592960	192	192
24117248	160	160
24641536	160	160
25165824	496	496
25690112	464	464
26214400	272	272
26738688	592	592
27262976	240	224
27787264	176	176
28311552	688	672
28835840	448	448
29360128	128	128
29884416	432	432
30408704	192	192
30932992	448	448
31457280	384	384
31981568	400	400
32505856	368	368
33030144	96	96
33554432	544	544
34603008	592	592
35651584	272	272
36700160	384	384
37748736	848	848
38797312	272	272
39845888	128	128
40894464	416	416
41943040	208	208
42991616	96	96
44040192	352	352
45088768	176	176
46137344	64	64
47185920	144	144
48234496	880	880
49283072	128	128
50331648	144	144
51380224	624	624
52428800	672	672
53477376	144	144
54525952	864	864
55574528	368	368
56623104	64	64
57671680	368	368
58720256	112	112
59768832	16	16
60817408	320	320
61865984	320	320
62914560	144	144
63963136	32	32
65011712	304	304
66060288	256	256
67108864	112	112
69206016	96	96
71303168	752	752
73400320	112	96
75497472	1024	1024
77594624	256	256
79691776	48	48
81788928	272	32
83886080	48	48
85983232	336	336
88080384	192	192
90177536	416	80
92274688	464	64
94371840	736	736
96468992	0	0
98566144	32	32
100663296	16	16
102760448	48	48
104857600	784	624
106954752	16	16
109051904	48	48
111149056	528	528
113246208	240	240
115343360	208	32
117440512	32	32
119537664	432	432
121634816	32	32
123731968	16	16
125829120	528	240
127926272	16	16
130023424	16	16
132120576	240	0
134217728	32	32
138412032	32	32
142606336	544	112
146800640	576	352
150994944	16	16
155189248	48	48
159383552	16	16
163577856	256	256
167772160	32	32
171966464	80	80
176160768	288	288
180355072	16	16
184549376	224	224
188743680	16	16
192937984	0	0
197132288	0	0
201326592	352	16
205520896	32	32
209715200	38768	19376
213909504	80	80
218103808	0	0
222298112	16	16
226492416	16	0
230686720	0	0
234881024	0	0
239075328	0	0
243269632	0	0
247463936	0	0
251658240	16	16
255852544	288	288
260046848	0	0
264241152	16	16
268435456	16	16
276824064	0	0
285212672	16	16
293601280	0	0
301989888	320	320
310378496	0	0
318767104	16	16
327155712	240	240
335544320	0	0
343932928	16	16
352321536	0	0
360710144	16	16
369098752	32	32
377487360	0	0
385875968	16	16
394264576	0	0
402653184	32	32
411041792	16	16
419430400	0	0
427819008	0	0
436207616	0	0
444596224	0	0
452984832	0	0
461373440	16	16
469762048	0	0
478150656	0	0
486539264	0	0
494927872	0	0
503316480	0	0
511705088	0	0
520093696	0	0
528482304	0	0
536870912	0	0
553648128	0	0
570425344	0	0
587202560	0	0
603979776	0	0
620756992	0	0
637534208	0	0
654311424	0	0
671088640	0	0
687865856	0	0
704643072	0	0
721420288	0	0
738197504	0	0
754974720	0	0
771751936	0	0
788529152	0	0
805306368	0	0
822083584	0	0
838860800	0	0
855638016	0	0
872415232	0	0
889192448	0	0
905969664	0	0
922746880	0	0
939524096	0	0
956301312	0	0
973078528	0	0
989855744	0	0
1006632960	0	0
1023410176	0	0
1040187392	0	0
1056964608	0	0
1073741824	0	0
1107296256	0	0
1140850688	0	0
1174405120	0	0
1207959552	0	0
1241513984	0	0
1275068416	0	0
1308622848	0	0
1342177280	0	0
1375731712	0	0
1409286144	0	0
1442840576	0	0
1476395008	0	0
1509949440	0	0
1543503872	0	0
1577058304	0	0
1610612736	0	0
1644167168	0	0
1677721600	0	0
1711276032	0	0
1744830464	0	0
1778384896	0	0
1811939328	0	0
1845493760	0	0
1879048192	0	0
1912602624	0	0
1946157056	0	0
1979711488	0	0
2013265920	0	0
2046820352	0	0
2080374784	0	0
2113929216	0	0
2147483648	0	0
2214592512	0	0
2281701376	0	0
2348810240	0	0
2415919104	0	0
2483027968	0	0
2550136832	0	0
2617245696	0	0
2684354560	0	0
2751463424	0	0
2818572288	0	0
2885681152	0	0
2952790016	0	0
3019898880	0	0
3087007744	0	0
3154116608	0	0
3221225472	0	0
3288334336	0	0
3355443200	0	0
3422552064	0	0
3489660928	0	0
3556769792	0	0
3623878656	0	0
3690987520	0	0
3758096384	0	0
3825205248	0	0
3892314112	0	0
3959422976	0	0
4026531840	0	0
4093640704	0	0
4160749568	0	0
4227858432	0	0
~~~~~~~~~~Reuse Distance Profiler output end~~~~~~~~~~

DRAM Statistics
 CHANNEL 0
 RQ ROW_BUFFER_HIT:       3043  ROW_BUFFER_MISS:      79494
 DBUS AVG_CONGESTED_CYCLE:     3.9845
 WQ ROW_BUFFER_HIT:       5212  ROW_BUFFER_MISS:      38782  FULL:          0


CPU 0 Branch Prediction Accuracy: 85.012% MPKI: 24.6462 Average ROB Occupancy at Mispredict: 19.7242
Branch type MPKI
BRANCH_DIRECT_JUMP: 5.33333e-06
BRANCH_INDIRECT: 0.000522667
BRANCH_CONDITIONAL: 24.6457
BRANCH_DIRECT_CALL: 2e-06
BRANCH_INDIRECT_CALL: 2.66667e-06
BRANCH_RETURN: 4.66667e-06

