
*** ChampSim Multicore Out-of-Order Simulator ***

Warmup Instructions: 500000000
Simulation Instructions: 1500000000
Number of CPUs: 1
Off-chip DRAM Size: 4 GiB Channels: 1 Width: 64-bit Data Rate: 3200 MT/s

VirtualMemory physical capacity: 8588881920 num_ppages: 2096895
VirtualMemory page size: 4096 log2_page_size: 12

CPU 0 runs traces/641.leela_s-334B.champsimtrace.xz
CPU 0 Bimodal branch predictor
Basic BTB sets: 1024 ways: 8 indirect buffer size: 4096 RAS size: 64
Initializing LRU.
Initializing LRU.
Initializing LRU.
Initializing LRU.
Initializing rdLRU.
Initializing LRU.
Initializing LRU.
Heartbeat CPU 0 instructions: 10000001 cycles: 2557411 heartbeat IPC: 3.9102 cumulative IPC: 3.9102 (Simulation time: 0 hr 0 min 57 sec) 
Heartbeat CPU 0 instructions: 20000003 cycles: 5113511 heartbeat IPC: 3.91221 cumulative IPC: 3.91121 (Simulation time: 0 hr 1 min 54 sec) 
Heartbeat CPU 0 instructions: 30000002 cycles: 7669617 heartbeat IPC: 3.9122 cumulative IPC: 3.91154 (Simulation time: 0 hr 2 min 53 sec) 
Heartbeat CPU 0 instructions: 40000002 cycles: 10226868 heartbeat IPC: 3.91045 cumulative IPC: 3.91127 (Simulation time: 0 hr 3 min 45 sec) 
Heartbeat CPU 0 instructions: 50000001 cycles: 12786780 heartbeat IPC: 3.90638 cumulative IPC: 3.91029 (Simulation time: 0 hr 4 min 42 sec) 
Heartbeat CPU 0 instructions: 60000000 cycles: 15342666 heartbeat IPC: 3.91254 cumulative IPC: 3.91066 (Simulation time: 0 hr 5 min 40 sec) 
Heartbeat CPU 0 instructions: 70000001 cycles: 17894638 heartbeat IPC: 3.91854 cumulative IPC: 3.91179 (Simulation time: 0 hr 6 min 36 sec) 
Heartbeat CPU 0 instructions: 80000001 cycles: 20451832 heartbeat IPC: 3.91054 cumulative IPC: 3.91163 (Simulation time: 0 hr 7 min 33 sec) 
Heartbeat CPU 0 instructions: 90000000 cycles: 23007803 heartbeat IPC: 3.91241 cumulative IPC: 3.91172 (Simulation time: 0 hr 8 min 31 sec) 
Heartbeat CPU 0 instructions: 100000000 cycles: 25562531 heartbeat IPC: 3.91431 cumulative IPC: 3.91198 (Simulation time: 0 hr 9 min 28 sec) 
Heartbeat CPU 0 instructions: 110000001 cycles: 28115056 heartbeat IPC: 3.91769 cumulative IPC: 3.91249 (Simulation time: 0 hr 10 min 20 sec) 
Heartbeat CPU 0 instructions: 120000001 cycles: 30669611 heartbeat IPC: 3.91458 cumulative IPC: 3.91267 (Simulation time: 0 hr 11 min 18 sec) 
Heartbeat CPU 0 instructions: 130000002 cycles: 33228739 heartbeat IPC: 3.90758 cumulative IPC: 3.91228 (Simulation time: 0 hr 12 min 15 sec) 
Heartbeat CPU 0 instructions: 140000003 cycles: 35783240 heartbeat IPC: 3.91466 cumulative IPC: 3.91245 (Simulation time: 0 hr 13 min 13 sec) 
Heartbeat CPU 0 instructions: 150000002 cycles: 38344113 heartbeat IPC: 3.90492 cumulative IPC: 3.91194 (Simulation time: 0 hr 14 min 8 sec) 
Heartbeat CPU 0 instructions: 160000003 cycles: 40906043 heartbeat IPC: 3.90331 cumulative IPC: 3.9114 (Simulation time: 0 hr 15 min 6 sec) 
Heartbeat CPU 0 instructions: 170000001 cycles: 43459194 heartbeat IPC: 3.91673 cumulative IPC: 3.91172 (Simulation time: 0 hr 16 min 5 sec) 
Heartbeat CPU 0 instructions: 180000000 cycles: 46016999 heartbeat IPC: 3.9096 cumulative IPC: 3.9116 (Simulation time: 0 hr 17 min 1 sec) 
Heartbeat CPU 0 instructions: 190000002 cycles: 48575429 heartbeat IPC: 3.90865 cumulative IPC: 3.91144 (Simulation time: 0 hr 17 min 59 sec) 
Heartbeat CPU 0 instructions: 200000001 cycles: 51168784 heartbeat IPC: 3.85601 cumulative IPC: 3.90863 (Simulation time: 0 hr 18 min 54 sec) 
Heartbeat CPU 0 instructions: 210000002 cycles: 53796560 heartbeat IPC: 3.8055 cumulative IPC: 3.9036 (Simulation time: 0 hr 19 min 54 sec) 
Heartbeat CPU 0 instructions: 220000003 cycles: 56352109 heartbeat IPC: 3.91305 cumulative IPC: 3.90402 (Simulation time: 0 hr 20 min 47 sec) 
Heartbeat CPU 0 instructions: 230000003 cycles: 58908756 heartbeat IPC: 3.91137 cumulative IPC: 3.90434 (Simulation time: 0 hr 21 min 46 sec) 
Heartbeat CPU 0 instructions: 240000001 cycles: 61463965 heartbeat IPC: 3.91357 cumulative IPC: 3.90473 (Simulation time: 0 hr 22 min 45 sec) 
Heartbeat CPU 0 instructions: 250000001 cycles: 64021260 heartbeat IPC: 3.91038 cumulative IPC: 3.90495 (Simulation time: 0 hr 23 min 43 sec) 
Heartbeat CPU 0 instructions: 260000001 cycles: 66576803 heartbeat IPC: 3.91306 cumulative IPC: 3.90526 (Simulation time: 0 hr 24 min 38 sec) 
Heartbeat CPU 0 instructions: 270000001 cycles: 69133714 heartbeat IPC: 3.91097 cumulative IPC: 3.90548 (Simulation time: 0 hr 25 min 37 sec) 
Heartbeat CPU 0 instructions: 280000002 cycles: 71688222 heartbeat IPC: 3.91465 cumulative IPC: 3.9058 (Simulation time: 0 hr 26 min 34 sec) 
Heartbeat CPU 0 instructions: 290000000 cycles: 74241656 heartbeat IPC: 3.91629 cumulative IPC: 3.90616 (Simulation time: 0 hr 27 min 30 sec) 
Heartbeat CPU 0 instructions: 300000001 cycles: 76802872 heartbeat IPC: 3.9044 cumulative IPC: 3.9061 (Simulation time: 0 hr 28 min 22 sec) 
Heartbeat CPU 0 instructions: 310000003 cycles: 79364847 heartbeat IPC: 3.90324 cumulative IPC: 3.90601 (Simulation time: 0 hr 29 min 19 sec) 
Heartbeat CPU 0 instructions: 320000001 cycles: 81921795 heartbeat IPC: 3.91091 cumulative IPC: 3.90616 (Simulation time: 0 hr 30 min 15 sec) 
Heartbeat CPU 0 instructions: 330000001 cycles: 84478946 heartbeat IPC: 3.9106 cumulative IPC: 3.9063 (Simulation time: 0 hr 31 min 10 sec) 
Heartbeat CPU 0 instructions: 340000000 cycles: 87033412 heartbeat IPC: 3.91471 cumulative IPC: 3.90655 (Simulation time: 0 hr 32 min 6 sec) 
Heartbeat CPU 0 instructions: 350000002 cycles: 89586817 heartbeat IPC: 3.91634 cumulative IPC: 3.90682 (Simulation time: 0 hr 33 min 6 sec) 
Heartbeat CPU 0 instructions: 360000000 cycles: 92139345 heartbeat IPC: 3.91768 cumulative IPC: 3.90713 (Simulation time: 0 hr 34 min 3 sec) 
Heartbeat CPU 0 instructions: 370000003 cycles: 94696220 heartbeat IPC: 3.91103 cumulative IPC: 3.90723 (Simulation time: 0 hr 34 min 59 sec) 
Heartbeat CPU 0 instructions: 380000001 cycles: 97248810 heartbeat IPC: 3.91759 cumulative IPC: 3.9075 (Simulation time: 0 hr 35 min 56 sec) 
Heartbeat CPU 0 instructions: 390000001 cycles: 99810588 heartbeat IPC: 3.90354 cumulative IPC: 3.9074 (Simulation time: 0 hr 36 min 49 sec) 
Heartbeat CPU 0 instructions: 400000001 cycles: 102370021 heartbeat IPC: 3.90712 cumulative IPC: 3.90739 (Simulation time: 0 hr 37 min 41 sec) 
Heartbeat CPU 0 instructions: 410000001 cycles: 104928372 heartbeat IPC: 3.90877 cumulative IPC: 3.90743 (Simulation time: 0 hr 38 min 40 sec) 
Heartbeat CPU 0 instructions: 420000000 cycles: 107484604 heartbeat IPC: 3.91201 cumulative IPC: 3.90754 (Simulation time: 0 hr 39 min 32 sec) 
Heartbeat CPU 0 instructions: 430000003 cycles: 110042296 heartbeat IPC: 3.90978 cumulative IPC: 3.90759 (Simulation time: 0 hr 40 min 28 sec) 
Heartbeat CPU 0 instructions: 440000000 cycles: 112707813 heartbeat IPC: 3.75162 cumulative IPC: 3.9039 (Simulation time: 0 hr 41 min 25 sec) 
Heartbeat CPU 0 instructions: 450000002 cycles: 115261732 heartbeat IPC: 3.91555 cumulative IPC: 3.90416 (Simulation time: 0 hr 42 min 16 sec) 
Heartbeat CPU 0 instructions: 460000002 cycles: 117815033 heartbeat IPC: 3.9165 cumulative IPC: 3.90443 (Simulation time: 0 hr 43 min 9 sec) 
Heartbeat CPU 0 instructions: 470000003 cycles: 120373032 heartbeat IPC: 3.90931 cumulative IPC: 3.90453 (Simulation time: 0 hr 43 min 53 sec) 
Heartbeat CPU 0 instructions: 480000003 cycles: 122931623 heartbeat IPC: 3.9084 cumulative IPC: 3.90461 (Simulation time: 0 hr 44 min 44 sec) 
Heartbeat CPU 0 instructions: 490000001 cycles: 125485455 heartbeat IPC: 3.91568 cumulative IPC: 3.90483 (Simulation time: 0 hr 45 min 38 sec) 
Heartbeat CPU 0 instructions: 500000000 cycles: 128038615 heartbeat IPC: 3.91671 cumulative IPC: 3.90507 (Simulation time: 0 hr 46 min 29 sec) 

Warmup complete CPU 0 instructions: 500000004 cycles: 128038616 (Simulation time: 0 hr 46 min 29 sec) 

Heartbeat CPU 0 instructions: 510000000 cycles: 138139837 heartbeat IPC: 0.989979 cumulative IPC: 0.989979 (Simulation time: 0 hr 47 min 20 sec) 
Heartbeat CPU 0 instructions: 520000004 cycles: 148373026 heartbeat IPC: 0.977213 cumulative IPC: 0.983554 (Simulation time: 0 hr 48 min 20 sec) 
Heartbeat CPU 0 instructions: 530000000 cycles: 158363998 heartbeat IPC: 1.0009 cumulative IPC: 0.98927 (Simulation time: 0 hr 49 min 16 sec) 
Heartbeat CPU 0 instructions: 540000000 cycles: 168461151 heartbeat IPC: 0.990378 cumulative IPC: 0.989547 (Simulation time: 0 hr 50 min 10 sec) 
Heartbeat CPU 0 instructions: 550000004 cycles: 178461043 heartbeat IPC: 1.00001 cumulative IPC: 0.991622 (Simulation time: 0 hr 51 min 6 sec) 
Heartbeat CPU 0 instructions: 560000003 cycles: 188533895 heartbeat IPC: 0.992767 cumulative IPC: 0.991813 (Simulation time: 0 hr 52 min 6 sec) 
Heartbeat CPU 0 instructions: 570000002 cycles: 198612935 heartbeat IPC: 0.992158 cumulative IPC: 0.991862 (Simulation time: 0 hr 53 min 4 sec) 
Heartbeat CPU 0 instructions: 580000000 cycles: 208735397 heartbeat IPC: 0.987902 cumulative IPC: 0.991365 (Simulation time: 0 hr 53 min 58 sec) 
Heartbeat CPU 0 instructions: 590000000 cycles: 218897261 heartbeat IPC: 0.984071 cumulative IPC: 0.99055 (Simulation time: 0 hr 54 min 55 sec) 
Heartbeat CPU 0 instructions: 600000000 cycles: 229075100 heartbeat IPC: 0.982527 cumulative IPC: 0.989741 (Simulation time: 0 hr 55 min 56 sec) 
Heartbeat CPU 0 instructions: 610000004 cycles: 239251156 heartbeat IPC: 0.982699 cumulative IPC: 0.989097 (Simulation time: 0 hr 56 min 57 sec) 
Heartbeat CPU 0 instructions: 620000001 cycles: 249409888 heartbeat IPC: 0.984375 cumulative IPC: 0.988702 (Simulation time: 0 hr 57 min 56 sec) 
Heartbeat CPU 0 instructions: 630000001 cycles: 259718193 heartbeat IPC: 0.970092 cumulative IPC: 0.987245 (Simulation time: 0 hr 58 min 57 sec) 
Heartbeat CPU 0 instructions: 640000000 cycles: 270105965 heartbeat IPC: 0.96267 cumulative IPC: 0.985448 (Simulation time: 0 hr 59 min 57 sec) 
Heartbeat CPU 0 instructions: 650000001 cycles: 280450652 heartbeat IPC: 0.96668 cumulative IPC: 0.984174 (Simulation time: 1 hr 0 min 59 sec) 
Heartbeat CPU 0 instructions: 660000002 cycles: 290769808 heartbeat IPC: 0.969072 cumulative IPC: 0.983217 (Simulation time: 1 hr 1 min 57 sec) 
Heartbeat CPU 0 instructions: 670000004 cycles: 301062395 heartbeat IPC: 0.971573 cumulative IPC: 0.982524 (Simulation time: 1 hr 2 min 55 sec) 
Heartbeat CPU 0 instructions: 680000003 cycles: 314842245 heartbeat IPC: 0.725697 cumulative IPC: 0.963579 (Simulation time: 1 hr 4 min 16 sec) 
Heartbeat CPU 0 instructions: 690000003 cycles: 325188702 heartbeat IPC: 0.966514 cumulative IPC: 0.963733 (Simulation time: 1 hr 5 min 18 sec) 
Heartbeat CPU 0 instructions: 700000003 cycles: 335565886 heartbeat IPC: 0.963653 cumulative IPC: 0.963729 (Simulation time: 1 hr 6 min 20 sec) 
Heartbeat CPU 0 instructions: 710000001 cycles: 345939409 heartbeat IPC: 0.963992 cumulative IPC: 0.963741 (Simulation time: 1 hr 7 min 23 sec) 
Heartbeat CPU 0 instructions: 720000000 cycles: 356218670 heartbeat IPC: 0.972833 cumulative IPC: 0.964151 (Simulation time: 1 hr 8 min 25 sec) 
Heartbeat CPU 0 instructions: 730000001 cycles: 366489660 heartbeat IPC: 0.973616 cumulative IPC: 0.964559 (Simulation time: 1 hr 9 min 30 sec) 
Heartbeat CPU 0 instructions: 740000000 cycles: 376554785 heartbeat IPC: 0.99353 cumulative IPC: 0.965732 (Simulation time: 1 hr 10 min 21 sec) 
Heartbeat CPU 0 instructions: 750000003 cycles: 386708434 heartbeat IPC: 0.984868 cumulative IPC: 0.966483 (Simulation time: 1 hr 11 min 6 sec) 
Heartbeat CPU 0 instructions: 760000003 cycles: 396985129 heartbeat IPC: 0.973076 cumulative IPC: 0.966735 (Simulation time: 1 hr 11 min 48 sec) 
Heartbeat CPU 0 instructions: 770000002 cycles: 407201164 heartbeat IPC: 0.978853 cumulative IPC: 0.967178 (Simulation time: 1 hr 12 min 53 sec) 
Heartbeat CPU 0 instructions: 780000000 cycles: 417404378 heartbeat IPC: 0.980083 cumulative IPC: 0.967633 (Simulation time: 1 hr 13 min 49 sec) 
Heartbeat CPU 0 instructions: 790000000 cycles: 427655002 heartbeat IPC: 0.97555 cumulative IPC: 0.967904 (Simulation time: 1 hr 14 min 48 sec) 
Heartbeat CPU 0 instructions: 800000000 cycles: 437911748 heartbeat IPC: 0.974968 cumulative IPC: 0.968138 (Simulation time: 1 hr 15 min 45 sec) 
Heartbeat CPU 0 instructions: 810000000 cycles: 448303597 heartbeat IPC: 0.962293 cumulative IPC: 0.967948 (Simulation time: 1 hr 16 min 49 sec) 
Heartbeat CPU 0 instructions: 820000001 cycles: 458543817 heartbeat IPC: 0.976542 cumulative IPC: 0.968215 (Simulation time: 1 hr 17 min 53 sec) 
Heartbeat CPU 0 instructions: 830000000 cycles: 468661333 heartbeat IPC: 0.988385 cumulative IPC: 0.968814 (Simulation time: 1 hr 18 min 55 sec) 
Heartbeat CPU 0 instructions: 840000000 cycles: 478887016 heartbeat IPC: 0.97793 cumulative IPC: 0.969079 (Simulation time: 1 hr 19 min 59 sec) 
Heartbeat CPU 0 instructions: 850000003 cycles: 489167359 heartbeat IPC: 0.97273 cumulative IPC: 0.969183 (Simulation time: 1 hr 21 min 2 sec) 
Heartbeat CPU 0 instructions: 860000000 cycles: 499400078 heartbeat IPC: 0.977257 cumulative IPC: 0.969406 (Simulation time: 1 hr 22 min 7 sec) 
Heartbeat CPU 0 instructions: 870000000 cycles: 509635567 heartbeat IPC: 0.976993 cumulative IPC: 0.969609 (Simulation time: 1 hr 23 min 5 sec) 
Heartbeat CPU 0 instructions: 880000001 cycles: 519819797 heartbeat IPC: 0.98191 cumulative IPC: 0.969929 (Simulation time: 1 hr 24 min 7 sec) 
Heartbeat CPU 0 instructions: 890000001 cycles: 530057332 heartbeat IPC: 0.976798 cumulative IPC: 0.970104 (Simulation time: 1 hr 25 min 6 sec) 
Heartbeat CPU 0 instructions: 900000002 cycles: 540231308 heartbeat IPC: 0.9829 cumulative IPC: 0.97042 (Simulation time: 1 hr 25 min 56 sec) 
Heartbeat CPU 0 instructions: 910000001 cycles: 550398459 heartbeat IPC: 0.98356 cumulative IPC: 0.970736 (Simulation time: 1 hr 26 min 55 sec) 
Heartbeat CPU 0 instructions: 920000000 cycles: 582073839 heartbeat IPC: 0.315703 cumulative IPC: 0.925038 (Simulation time: 1 hr 30 min 10 sec) 
Heartbeat CPU 0 instructions: 930000000 cycles: 595726245 heartbeat IPC: 0.732472 cumulative IPC: 0.919417 (Simulation time: 1 hr 31 min 23 sec) 
Heartbeat CPU 0 instructions: 940000002 cycles: 606352633 heartbeat IPC: 0.941054 cumulative IPC: 0.919898 (Simulation time: 1 hr 32 min 17 sec) 
Heartbeat CPU 0 instructions: 950000000 cycles: 616937496 heartbeat IPC: 0.944745 cumulative IPC: 0.920436 (Simulation time: 1 hr 33 min 19 sec) 
Heartbeat CPU 0 instructions: 960000000 cycles: 627496315 heartbeat IPC: 0.947076 cumulative IPC: 0.920999 (Simulation time: 1 hr 34 min 20 sec) 
Heartbeat CPU 0 instructions: 970000003 cycles: 638050918 heartbeat IPC: 0.947454 cumulative IPC: 0.921546 (Simulation time: 1 hr 35 min 22 sec) 
Heartbeat CPU 0 instructions: 980000000 cycles: 648569564 heartbeat IPC: 0.950692 cumulative IPC: 0.922135 (Simulation time: 1 hr 36 min 13 sec) 
Heartbeat CPU 0 instructions: 990000002 cycles: 659079712 heartbeat IPC: 0.951462 cumulative IPC: 0.922716 (Simulation time: 1 hr 37 min 9 sec) 
Heartbeat CPU 0 instructions: 1000000000 cycles: 669440565 heartbeat IPC: 0.965171 cumulative IPC: 0.923528 (Simulation time: 1 hr 38 min 7 sec) 
Heartbeat CPU 0 instructions: 1010000000 cycles: 679790565 heartbeat IPC: 0.966184 cumulative IPC: 0.924328 (Simulation time: 1 hr 39 min 4 sec) 
Heartbeat CPU 0 instructions: 1020000003 cycles: 690309794 heartbeat IPC: 0.95064 cumulative IPC: 0.924821 (Simulation time: 1 hr 40 min 2 sec) 
Heartbeat CPU 0 instructions: 1030000000 cycles: 700476696 heartbeat IPC: 0.983584 cumulative IPC: 0.925864 (Simulation time: 1 hr 41 min 1 sec) 
Heartbeat CPU 0 instructions: 1040000002 cycles: 710657479 heartbeat IPC: 0.982243 cumulative IPC: 0.926849 (Simulation time: 1 hr 42 min 5 sec) 
Heartbeat CPU 0 instructions: 1050000001 cycles: 720920709 heartbeat IPC: 0.974352 cumulative IPC: 0.927672 (Simulation time: 1 hr 42 min 57 sec) 
Heartbeat CPU 0 instructions: 1060000000 cycles: 731147450 heartbeat IPC: 0.977829 cumulative IPC: 0.928522 (Simulation time: 1 hr 43 min 59 sec) 
Heartbeat CPU 0 instructions: 1070000000 cycles: 741042524 heartbeat IPC: 1.0106 cumulative IPC: 0.929847 (Simulation time: 1 hr 44 min 53 sec) 
Heartbeat CPU 0 instructions: 1080000001 cycles: 751061142 heartbeat IPC: 0.998142 cumulative IPC: 0.930945 (Simulation time: 1 hr 45 min 50 sec) 
Heartbeat CPU 0 instructions: 1090000004 cycles: 761323796 heartbeat IPC: 0.974407 cumulative IPC: 0.93165 (Simulation time: 1 hr 46 min 46 sec) 
Heartbeat CPU 0 instructions: 1100000001 cycles: 771337568 heartbeat IPC: 0.998624 cumulative IPC: 0.932692 (Simulation time: 1 hr 47 min 47 sec) 
Heartbeat CPU 0 instructions: 1110000002 cycles: 781278470 heartbeat IPC: 1.00595 cumulative IPC: 0.933807 (Simulation time: 1 hr 48 min 48 sec) 
Heartbeat CPU 0 instructions: 1120000003 cycles: 791328388 heartbeat IPC: 0.995033 cumulative IPC: 0.934735 (Simulation time: 1 hr 49 min 50 sec) 
Heartbeat CPU 0 instructions: 1130000001 cycles: 801493584 heartbeat IPC: 0.983749 cumulative IPC: 0.935475 (Simulation time: 1 hr 50 min 50 sec) 
Heartbeat CPU 0 instructions: 1140000001 cycles: 811652663 heartbeat IPC: 0.984341 cumulative IPC: 0.936201 (Simulation time: 1 hr 51 min 51 sec) 
Heartbeat CPU 0 instructions: 1150000003 cycles: 821671630 heartbeat IPC: 0.998107 cumulative IPC: 0.937095 (Simulation time: 1 hr 52 min 49 sec) 
Heartbeat CPU 0 instructions: 1160000000 cycles: 831714726 heartbeat IPC: 0.995709 cumulative IPC: 0.937932 (Simulation time: 1 hr 53 min 53 sec) 
Heartbeat CPU 0 instructions: 1170000000 cycles: 841724835 heartbeat IPC: 0.99899 cumulative IPC: 0.938788 (Simulation time: 1 hr 54 min 56 sec) 
Heartbeat CPU 0 instructions: 1180000000 cycles: 854528738 heartbeat IPC: 0.781012 cumulative IPC: 0.936007 (Simulation time: 1 hr 56 min 17 sec) 
Heartbeat CPU 0 instructions: 1190000003 cycles: 864971564 heartbeat IPC: 0.957595 cumulative IPC: 0.936313 (Simulation time: 1 hr 57 min 21 sec) 
Heartbeat CPU 0 instructions: 1200000000 cycles: 875172183 heartbeat IPC: 0.980332 cumulative IPC: 0.936914 (Simulation time: 1 hr 58 min 19 sec) 
Heartbeat CPU 0 instructions: 1210000004 cycles: 885131624 heartbeat IPC: 1.00407 cumulative IPC: 0.937798 (Simulation time: 1 hr 59 min 15 sec) 
Heartbeat CPU 0 instructions: 1220000003 cycles: 895349833 heartbeat IPC: 0.978645 cumulative IPC: 0.938342 (Simulation time: 2 hr 0 min 10 sec) 
Heartbeat CPU 0 instructions: 1230000001 cycles: 905267727 heartbeat IPC: 1.00828 cumulative IPC: 0.939234 (Simulation time: 2 hr 1 min 10 sec) 
Heartbeat CPU 0 instructions: 1240000000 cycles: 915271497 heartbeat IPC: 0.999623 cumulative IPC: 0.940001 (Simulation time: 2 hr 2 min 4 sec) 
Heartbeat CPU 0 instructions: 1250000003 cycles: 925161589 heartbeat IPC: 1.01111 cumulative IPC: 0.940884 (Simulation time: 2 hr 2 min 59 sec) 
Heartbeat CPU 0 instructions: 1260000000 cycles: 935361385 heartbeat IPC: 0.980411 cumulative IPC: 0.941383 (Simulation time: 2 hr 3 min 58 sec) 
Heartbeat CPU 0 instructions: 1270000002 cycles: 945214043 heartbeat IPC: 1.01495 cumulative IPC: 0.94227 (Simulation time: 2 hr 4 min 56 sec) 
Heartbeat CPU 0 instructions: 1280000004 cycles: 955288741 heartbeat IPC: 0.992586 cumulative IPC: 0.942883 (Simulation time: 2 hr 5 min 54 sec) 
Heartbeat CPU 0 instructions: 1290000001 cycles: 965163481 heartbeat IPC: 1.01268 cumulative IPC: 0.943706 (Simulation time: 2 hr 6 min 52 sec) 
Heartbeat CPU 0 instructions: 1300000000 cycles: 975213761 heartbeat IPC: 0.994997 cumulative IPC: 0.944315 (Simulation time: 2 hr 7 min 56 sec) 
Heartbeat CPU 0 instructions: 1310000001 cycles: 985915966 heartbeat IPC: 0.934387 cumulative IPC: 0.944191 (Simulation time: 2 hr 8 min 59 sec) 
Heartbeat CPU 0 instructions: 1320000003 cycles: 996556842 heartbeat IPC: 0.939772 cumulative IPC: 0.944137 (Simulation time: 2 hr 9 min 52 sec) 
Heartbeat CPU 0 instructions: 1330000000 cycles: 1006986778 heartbeat IPC: 0.958778 cumulative IPC: 0.944311 (Simulation time: 2 hr 10 min 52 sec) 
Heartbeat CPU 0 instructions: 1340000001 cycles: 1017243065 heartbeat IPC: 0.975012 cumulative IPC: 0.944665 (Simulation time: 2 hr 11 min 55 sec) 
Heartbeat CPU 0 instructions: 1350000000 cycles: 1027534521 heartbeat IPC: 0.97168 cumulative IPC: 0.944974 (Simulation time: 2 hr 12 min 53 sec) 
Heartbeat CPU 0 instructions: 1360000002 cycles: 1037818023 heartbeat IPC: 0.972432 cumulative IPC: 0.945284 (Simulation time: 2 hr 13 min 44 sec) 
Heartbeat CPU 0 instructions: 1370000004 cycles: 1048105348 heartbeat IPC: 0.97207 cumulative IPC: 0.945584 (Simulation time: 2 hr 14 min 33 sec) 
Heartbeat CPU 0 instructions: 1380000002 cycles: 1058347970 heartbeat IPC: 0.976312 cumulative IPC: 0.945922 (Simulation time: 2 hr 15 min 27 sec) 
Heartbeat CPU 0 instructions: 1390000004 cycles: 1068505332 heartbeat IPC: 0.984508 cumulative IPC: 0.946339 (Simulation time: 2 hr 16 min 26 sec) 
Heartbeat CPU 0 instructions: 1400000003 cycles: 1078570070 heartbeat IPC: 0.993568 cumulative IPC: 0.946839 (Simulation time: 2 hr 17 min 27 sec) 
Heartbeat CPU 0 instructions: 1410000003 cycles: 1088760175 heartbeat IPC: 0.981344 cumulative IPC: 0.947205 (Simulation time: 2 hr 18 min 15 sec) 
Heartbeat CPU 0 instructions: 1420000004 cycles: 1102266378 heartbeat IPC: 0.740401 cumulative IPC: 0.944338 (Simulation time: 2 hr 19 min 30 sec) 
Heartbeat CPU 0 instructions: 1430000003 cycles: 1112425644 heartbeat IPC: 0.984323 cumulative IPC: 0.94475 (Simulation time: 2 hr 20 min 31 sec) 
Heartbeat CPU 0 instructions: 1440000000 cycles: 1122779794 heartbeat IPC: 0.965796 cumulative IPC: 0.944969 (Simulation time: 2 hr 21 min 34 sec) 
Heartbeat CPU 0 instructions: 1450000003 cycles: 1132940430 heartbeat IPC: 0.984191 cumulative IPC: 0.945366 (Simulation time: 2 hr 22 min 34 sec) 
Heartbeat CPU 0 instructions: 1460000002 cycles: 1143022608 heartbeat IPC: 0.991849 cumulative IPC: 0.945828 (Simulation time: 2 hr 23 min 31 sec) 
Heartbeat CPU 0 instructions: 1470000004 cycles: 1152930439 heartbeat IPC: 1.0093 cumulative IPC: 0.946441 (Simulation time: 2 hr 24 min 20 sec) 
Heartbeat CPU 0 instructions: 1480000002 cycles: 1162961687 heartbeat IPC: 0.996885 cumulative IPC: 0.94693 (Simulation time: 2 hr 25 min 19 sec) 
Heartbeat CPU 0 instructions: 1490000004 cycles: 1173153224 heartbeat IPC: 0.981206 cumulative IPC: 0.947265 (Simulation time: 2 hr 26 min 11 sec) 
Heartbeat CPU 0 instructions: 1500000000 cycles: 1183292972 heartbeat IPC: 0.986217 cumulative IPC: 0.947639 (Simulation time: 2 hr 27 min 16 sec) 
Heartbeat CPU 0 instructions: 1510000001 cycles: 1193529687 heartbeat IPC: 0.976876 cumulative IPC: 0.94792 (Simulation time: 2 hr 28 min 19 sec) 
Heartbeat CPU 0 instructions: 1520000000 cycles: 1203593395 heartbeat IPC: 0.993669 cumulative IPC: 0.948348 (Simulation time: 2 hr 29 min 24 sec) 
Heartbeat CPU 0 instructions: 1530000003 cycles: 1213780720 heartbeat IPC: 0.981612 cumulative IPC: 0.94866 (Simulation time: 2 hr 30 min 9 sec) 
Heartbeat CPU 0 instructions: 1540000000 cycles: 1224150049 heartbeat IPC: 0.964382 cumulative IPC: 0.948809 (Simulation time: 2 hr 30 min 51 sec) 
Heartbeat CPU 0 instructions: 1550000004 cycles: 1234322761 heartbeat IPC: 0.983022 cumulative IPC: 0.949123 (Simulation time: 2 hr 31 min 27 sec) 
Heartbeat CPU 0 instructions: 1560000000 cycles: 1244483907 heartbeat IPC: 0.984141 cumulative IPC: 0.949442 (Simulation time: 2 hr 32 min 5 sec) 
Heartbeat CPU 0 instructions: 1570000000 cycles: 1254769662 heartbeat IPC: 0.972218 cumulative IPC: 0.94965 (Simulation time: 2 hr 32 min 41 sec) 
Heartbeat CPU 0 instructions: 1580000000 cycles: 1265021473 heartbeat IPC: 0.975437 cumulative IPC: 0.949882 (Simulation time: 2 hr 33 min 18 sec) 
Heartbeat CPU 0 instructions: 1590000000 cycles: 1275407825 heartbeat IPC: 0.962802 cumulative IPC: 0.949999 (Simulation time: 2 hr 33 min 54 sec) 
Heartbeat CPU 0 instructions: 1600000000 cycles: 1285633652 heartbeat IPC: 0.977916 cumulative IPC: 0.950246 (Simulation time: 2 hr 34 min 30 sec) 
Heartbeat CPU 0 instructions: 1610000001 cycles: 1295778106 heartbeat IPC: 0.98576 cumulative IPC: 0.950554 (Simulation time: 2 hr 35 min 9 sec) 
Heartbeat CPU 0 instructions: 1620000001 cycles: 1306081196 heartbeat IPC: 0.970583 cumulative IPC: 0.95073 (Simulation time: 2 hr 35 min 46 sec) 
Heartbeat CPU 0 instructions: 1630000004 cycles: 1316506165 heartbeat IPC: 0.959236 cumulative IPC: 0.950804 (Simulation time: 2 hr 36 min 21 sec) 
Heartbeat CPU 0 instructions: 1640000004 cycles: 1326945356 heartbeat IPC: 0.957929 cumulative IPC: 0.950866 (Simulation time: 2 hr 36 min 57 sec) 
Heartbeat CPU 0 instructions: 1650000001 cycles: 1337155620 heartbeat IPC: 0.979406 cumulative IPC: 0.951107 (Simulation time: 2 hr 37 min 33 sec) 
Heartbeat CPU 0 instructions: 1660000000 cycles: 1350882600 heartbeat IPC: 0.728492 cumulative IPC: 0.948608 (Simulation time: 2 hr 38 min 22 sec) 
Heartbeat CPU 0 instructions: 1670000000 cycles: 1361186121 heartbeat IPC: 0.970542 cumulative IPC: 0.948792 (Simulation time: 2 hr 38 min 58 sec) 
Heartbeat CPU 0 instructions: 1680000000 cycles: 1371464943 heartbeat IPC: 0.972874 cumulative IPC: 0.948991 (Simulation time: 2 hr 39 min 34 sec) 
Heartbeat CPU 0 instructions: 1690000002 cycles: 1381571872 heartbeat IPC: 0.98942 cumulative IPC: 0.949317 (Simulation time: 2 hr 40 min 9 sec) 
Heartbeat CPU 0 instructions: 1700000002 cycles: 1391655007 heartbeat IPC: 0.991755 cumulative IPC: 0.949655 (Simulation time: 2 hr 40 min 45 sec) 
Heartbeat CPU 0 instructions: 1710000001 cycles: 1401660600 heartbeat IPC: 0.999441 cumulative IPC: 0.950046 (Simulation time: 2 hr 41 min 21 sec) 
Heartbeat CPU 0 instructions: 1720000002 cycles: 1411742888 heartbeat IPC: 0.991838 cumulative IPC: 0.950375 (Simulation time: 2 hr 41 min 57 sec) 
Heartbeat CPU 0 instructions: 1730000000 cycles: 1421963480 heartbeat IPC: 0.978417 cumulative IPC: 0.950596 (Simulation time: 2 hr 42 min 58 sec) 
Heartbeat CPU 0 instructions: 1740000003 cycles: 1432116009 heartbeat IPC: 0.984977 cumulative IPC: 0.950864 (Simulation time: 2 hr 44 min 2 sec) 
Heartbeat CPU 0 instructions: 1750000001 cycles: 1442326005 heartbeat IPC: 0.979432 cumulative IPC: 0.951086 (Simulation time: 2 hr 45 min 6 sec) 
Heartbeat CPU 0 instructions: 1760000000 cycles: 1452632596 heartbeat IPC: 0.970253 cumulative IPC: 0.951235 (Simulation time: 2 hr 45 min 45 sec) 
Heartbeat CPU 0 instructions: 1770000001 cycles: 1462680029 heartbeat IPC: 0.995279 cumulative IPC: 0.951566 (Simulation time: 2 hr 46 min 22 sec) 
Heartbeat CPU 0 instructions: 1780000002 cycles: 1472510342 heartbeat IPC: 1.01726 cumulative IPC: 0.952047 (Simulation time: 2 hr 46 min 59 sec) 
Heartbeat CPU 0 instructions: 1790000001 cycles: 1482509976 heartbeat IPC: 1.00004 cumulative IPC: 0.952401 (Simulation time: 2 hr 47 min 44 sec) 
Heartbeat CPU 0 instructions: 1800000000 cycles: 1492515567 heartbeat IPC: 0.999441 cumulative IPC: 0.952746 (Simulation time: 2 hr 48 min 27 sec) 
Heartbeat CPU 0 instructions: 1810000004 cycles: 1502497940 heartbeat IPC: 1.00177 cumulative IPC: 0.953102 (Simulation time: 2 hr 49 min 3 sec) 
Heartbeat CPU 0 instructions: 1820000003 cycles: 1512398421 heartbeat IPC: 1.01005 cumulative IPC: 0.953509 (Simulation time: 2 hr 49 min 39 sec) 
Heartbeat CPU 0 instructions: 1830000003 cycles: 1522206534 heartbeat IPC: 1.01956 cumulative IPC: 0.953974 (Simulation time: 2 hr 50 min 15 sec) 
Heartbeat CPU 0 instructions: 1840000002 cycles: 1531823672 heartbeat IPC: 1.03981 cumulative IPC: 0.954562 (Simulation time: 2 hr 50 min 50 sec) 
Heartbeat CPU 0 instructions: 1850000001 cycles: 1541356275 heartbeat IPC: 1.04903 cumulative IPC: 0.955199 (Simulation time: 2 hr 51 min 27 sec) 
Heartbeat CPU 0 instructions: 1860000000 cycles: 1551101484 heartbeat IPC: 1.02615 cumulative IPC: 0.955685 (Simulation time: 2 hr 52 min 3 sec) 
Heartbeat CPU 0 instructions: 1870000004 cycles: 1561068262 heartbeat IPC: 1.00333 cumulative IPC: 0.956016 (Simulation time: 2 hr 52 min 39 sec) 
Heartbeat CPU 0 instructions: 1880000004 cycles: 1570946894 heartbeat IPC: 1.01229 cumulative IPC: 0.956402 (Simulation time: 2 hr 53 min 16 sec) 
Heartbeat CPU 0 instructions: 1890000001 cycles: 1580579865 heartbeat IPC: 1.0381 cumulative IPC: 0.956944 (Simulation time: 2 hr 53 min 52 sec) 
Heartbeat CPU 0 instructions: 1900000000 cycles: 1594027943 heartbeat IPC: 0.743601 cumulative IPC: 0.954987 (Simulation time: 2 hr 54 min 40 sec) 
Heartbeat CPU 0 instructions: 1910000002 cycles: 1604143902 heartbeat IPC: 0.988537 cumulative IPC: 0.955216 (Simulation time: 2 hr 55 min 15 sec) 
Heartbeat CPU 0 instructions: 1920000004 cycles: 1614221030 heartbeat IPC: 0.992346 cumulative IPC: 0.955468 (Simulation time: 2 hr 55 min 51 sec) 
Heartbeat CPU 0 instructions: 1930000001 cycles: 1624249688 heartbeat IPC: 0.997142 cumulative IPC: 0.955747 (Simulation time: 2 hr 56 min 27 sec) 
Heartbeat CPU 0 instructions: 1940000002 cycles: 1634165643 heartbeat IPC: 1.00848 cumulative IPC: 0.956095 (Simulation time: 2 hr 57 min 3 sec) 
Heartbeat CPU 0 instructions: 1950000000 cycles: 1644074428 heartbeat IPC: 1.00921 cumulative IPC: 0.956442 (Simulation time: 2 hr 57 min 39 sec) 
Heartbeat CPU 0 instructions: 1960000002 cycles: 1654000129 heartbeat IPC: 1.00749 cumulative IPC: 0.956774 (Simulation time: 2 hr 58 min 15 sec) 
Heartbeat CPU 0 instructions: 1970000004 cycles: 1663998238 heartbeat IPC: 1.00019 cumulative IPC: 0.957056 (Simulation time: 2 hr 58 min 51 sec) 
Heartbeat CPU 0 instructions: 1980000000 cycles: 1674400881 heartbeat IPC: 0.961294 cumulative IPC: 0.957085 (Simulation time: 2 hr 59 min 28 sec) 
Heartbeat CPU 0 instructions: 1990000004 cycles: 1684971218 heartbeat IPC: 0.946044 cumulative IPC: 0.95701 (Simulation time: 3 hr 0 min 4 sec) 
*** Reached end of trace: traces/641.leela_s-334B.champsimtrace.xz
Heartbeat CPU 0 instructions: 2000000000 cycles: 1695431523 heartbeat IPC: 0.955995 cumulative IPC: 0.957003 (Simulation time: 3 hr 0 min 40 sec) 
Finished CPU 0 instructions: 1500000001 cycles: 1567392908 cumulative IPC: 0.957003 (Simulation time: 3 hr 0 min 40 sec) 

ChampSim completed all CPUs

Region of Interest Statistics

CPU 0 cumulative IPC: 0.957003 instructions: 1500000001 cycles: 1567392908
cpu0_DTLB TOTAL     ACCESS:  307572837  HIT:  306477534  MISS:    1095303
cpu0_DTLB LOAD      ACCESS:  205210033  HIT:  204250373  MISS:     959660
cpu0_DTLB RFO       ACCESS:  102362804  HIT:  102227161  MISS:     135643
cpu0_DTLB PREFETCH  ACCESS:          0  HIT:          0  MISS:          0
cpu0_DTLB WRITEBACK ACCESS:          0  HIT:          0  MISS:          0
cpu0_DTLB TRANSLATION ACCESS:          0  HIT:          0  MISS:          0
cpu0_DTLB PREFETCH  REQUESTED:          0  ISSUED:          0  USEFUL:          0  USELESS:          0
cpu0_DTLB AVERAGE MISS LATENCY: 9.05452 cycles
cpu0_ITLB TOTAL     ACCESS:  168459494  HIT:  168459113  MISS:        381
cpu0_ITLB LOAD      ACCESS:  168459494  HIT:  168459113  MISS:        381
cpu0_ITLB RFO       ACCESS:          0  HIT:          0  MISS:          0
cpu0_ITLB PREFETCH  ACCESS:          0  HIT:          0  MISS:          0
cpu0_ITLB WRITEBACK ACCESS:          0  HIT:          0  MISS:          0
cpu0_ITLB TRANSLATION ACCESS:          0  HIT:          0  MISS:          0
cpu0_ITLB PREFETCH  REQUESTED:          0  ISSUED:          0  USEFUL:          0  USELESS:          0
cpu0_ITLB AVERAGE MISS LATENCY: 14.105 cycles
cpu0_L1I TOTAL     ACCESS:   82577337  HIT:   82103868  MISS:     473469
cpu0_L1I LOAD      ACCESS:   82577337  HIT:   82103868  MISS:     473469
cpu0_L1I RFO       ACCESS:          0  HIT:          0  MISS:          0
cpu0_L1I PREFETCH  ACCESS:          0  HIT:          0  MISS:          0
cpu0_L1I WRITEBACK ACCESS:          0  HIT:          0  MISS:          0
cpu0_L1I TRANSLATION ACCESS:          0  HIT:          0  MISS:          0
cpu0_L1I PREFETCH  REQUESTED:          0  ISSUED:          0  USEFUL:          0  USELESS:          0
cpu0_L1I AVERAGE MISS LATENCY: 13.4885 cycles
cpu0_STLB TOTAL     ACCESS:    1095684  HIT:    1093808  MISS:       1876
cpu0_STLB LOAD      ACCESS:     960041  HIT:     958575  MISS:       1466
cpu0_STLB RFO       ACCESS:     135643  HIT:     135233  MISS:        410
cpu0_STLB PREFETCH  ACCESS:          0  HIT:          0  MISS:          0
cpu0_STLB WRITEBACK ACCESS:          0  HIT:          0  MISS:          0
cpu0_STLB TRANSLATION ACCESS:          0  HIT:          0  MISS:          0
cpu0_STLB PREFETCH  REQUESTED:          0  ISSUED:          0  USEFUL:          0  USELESS:          0
cpu0_STLB AVERAGE MISS LATENCY: 32.6055 cycles
cpu0_L1D TOTAL     ACCESS:  406453784  HIT:  403053779  MISS:    3400005
cpu0_L1D LOAD      ACCESS:  228038804  HIT:  225640744  MISS:    2398060
cpu0_L1D RFO       ACCESS:  178413106  HIT:  177412204  MISS:    1000902
cpu0_L1D PREFETCH  ACCESS:          0  HIT:          0  MISS:          0
cpu0_L1D WRITEBACK ACCESS:          0  HIT:          0  MISS:          0
cpu0_L1D TRANSLATION ACCESS:       1874  HIT:        831  MISS:       1043
cpu0_L1D PREFETCH  REQUESTED:          0  ISSUED:          0  USEFUL:          0  USELESS:          0
cpu0_L1D AVERAGE MISS LATENCY: 26.5142 cycles
cpu0_L2C TOTAL     ACCESS:    5201149  HIT:    4577942  MISS:     623207
cpu0_L2C LOAD      ACCESS:    2871502  HIT:    2540476  MISS:     331026
cpu0_L2C RFO       ACCESS:    1000377  HIT:     708568  MISS:     291809
cpu0_L2C PREFETCH  ACCESS:          0  HIT:          0  MISS:          0
cpu0_L2C WRITEBACK ACCESS:    1328227  HIT:    1327903  MISS:        324
cpu0_L2C TRANSLATION ACCESS:       1043  HIT:        995  MISS:         48
cpu0_L2C PREFETCH  REQUESTED:          0  ISSUED:          0  USEFUL:          0  USELESS:          0
cpu0_L2C AVERAGE MISS LATENCY: 86.5091 cycles
LLC TOTAL     ACCESS:     942092  HIT:     717190  MISS:     224902
LLC LOAD      ACCESS:     331026  HIT:     210723  MISS:     120303
LLC RFO       ACCESS:     291809  HIT:     187275  MISS:     104534
LLC PREFETCH  ACCESS:          0  HIT:          0  MISS:          0
LLC WRITEBACK ACCESS:     319209  HIT:     319164  MISS:         45
LLC TRANSLATION ACCESS:         48  HIT:         28  MISS:         20
LLC PREFETCH  REQUESTED:          0  ISSUED:          0  USEFUL:          0  USELESS:          0
LLC AVERAGE MISS LATENCY: 181.555 cycles
~~~~~~~~~~Reuse Distance Profiler output~~~~~~~~~~
0	118578560	20007440
1	63735760	26748624
2	30503616	13325072
3	24476720	15147648
4	19687056	11696064
5	15997360	10351824
6	14567152	10056048
7	12849008	8431136
8	11418128	7593664
9	10348320	7684512
10	9411280	7140784
11	8365216	5987088
12	8181488	6157712
13	7277232	5565344
14	6337184	4852880
15	6290432	4449008
16	6099440	4446864
17	5090784	3836336
18	4689344	3617088
19	4024816	3010592
20	3826400	2940480
21	3335440	2653184
22	2905216	2364176
23	2865760	2177696
24	2794000	2113584
25	2619440	2157936
26	2325088	1849040
27	2078848	1610400
28	1876784	1455616
29	1764848	1378320
30	1750064	1398432
31	1760496	1395136
32	1730272	1317664
33	1889632	1351776
34	1749136	1322368
35	1508032	1147200
36	1395328	1019376
37	1363728	971904
38	1266960	893472
39	1172688	836096
40	1182624	852832
41	1155152	831808
42	1359184	854608
43	1130944	812816
44	1121168	806976
45	1034864	779248
46	1012816	799424
47	982576	767120
48	958512	762192
49	928768	732208
50	885568	701376
51	884448	698416
52	906160	708688
53	906080	732688
54	905984	737216
55	902608	728432
56	926784	773296
57	905088	751056
58	865520	721136
59	829888	699776
60	837808	714720
61	822016	691120
62	843344	712000
63	842304	704736
64	1648992	1395280
66	1638240	1371904
68	1547056	1281328
70	1504752	1251552
72	1483232	1223184
74	1383808	1126784
76	1286256	1036576
78	1206784	960736
80	1178112	938352
82	1116832	891152
84	1058160	842208
86	1020608	798480
88	981008	753680
90	982480	744576
92	924400	700464
94	884592	675376
96	822464	636640
98	779472	619856
100	741232	586160
102	688080	549264
104	680192	546672
106	616800	505728
108	581632	480640
110	558048	475120
112	524208	451968
114	520992	447952
116	509808	449296
118	494048	436000
120	450448	397760
122	454368	400560
124	435952	388128
126	415072	369024
128	805024	712304
132	758240	678704
136	719824	651168
140	689632	625024
144	677904	615360
148	651968	591760
152	619280	561408
156	587136	531552
160	573232	514640
164	539392	488064
168	512000	463728
172	491808	437888
176	465712	413632
180	448144	389280
184	426400	372736
188	447056	393040
192	419920	360464
196	412448	348736
200	410656	342000
204	397808	334032
208	400304	344400
212	360000	311520
216	364016	320128
220	334960	296160
224	360288	316880
228	422512	379024
232	432064	362784
236	380144	315456
240	344848	291952
244	409088	344096
248	362128	300544
252	364800	286160
256	649840	547936
264	577136	475600
272	600224	513536
280	573360	498112
288	531968	449248
296	435968	360160
304	399936	337168
312	406544	338224
320	404544	340848
328	355808	293040
336	437776	365824
344	320928	237328
352	268208	219648
360	259856	218320
368	260928	219520
376	257168	211632
384	255264	210896
392	247808	208320
400	252096	207328
408	227104	190528
416	217440	185680
424	213040	181152
432	225520	186112
440	218576	181504
448	214672	177600
456	222400	188256
464	198784	166512
472	198192	168160
480	192464	159472
488	207264	167104
496	188880	158912
504	184800	155168
512	345696	281664
528	354800	289776
544	346992	277968
560	343392	275584
576	372224	302416
592	353392	285312
608	328368	266448
624	316144	257600
640	311312	252400
656	299408	237680
672	292816	230000
688	279232	216688
704	271984	205312
720	261152	202064
736	251344	194000
752	232272	180240
768	212528	168016
784	202752	163584
800	188576	149504
816	193840	151152
832	180656	144576
848	175472	140752
864	156560	125328
880	147232	119504
896	137312	111296
912	136864	112720
928	126960	104832
944	120464	99776
960	122432	102960
976	112512	91776
992	108352	89344
1008	102352	86128
1024	191840	162000
1056	177632	148608
1088	169264	138624
1120	144848	116800
1152	132480	109472
1184	124272	102432
1216	121520	100832
1248	114416	94912
1280	114480	95904
1312	112336	94688
1344	104432	87600
1376	96832	80128
1408	87952	72704
1440	85312	70944
1472	81872	67312
1504	82048	64224
1536	83600	62720
1568	79184	59824
1600	74624	56208
1632	71216	53088
1664	68880	51904
1696	68048	52144
1728	66704	52864
1760	55936	43968
1792	59136	47552
1824	68400	53504
1856	65696	47360
1888	57632	43648
1920	52768	41488
1952	52752	40528
1984	62272	46480
2016	68256	51776
2048	179248	143824
2112	169920	123600
2176	110608	69008
2240	102016	63760
2304	117376	64944
2368	83632	51440
2432	90928	64208
2496	132592	101728
2560	207232	172256
2624	202496	179552
2688	92912	71952
2752	78080	49328
2816	68048	47552
2880	77296	55904
2944	79312	52496
3008	87904	50256
3072	73376	44832
3136	60800	33232
3200	52592	30448
3264	62432	38960
3328	64736	41920
3392	80864	58640
3456	111024	88464
3520	158864	136640
3584	119472	95904
3648	54144	34080
3712	42720	24448
3776	44912	26864
3840	59968	42800
3904	82384	64640
3968	135008	118192
4032	129040	111648
4096	110864	66448
4224	115008	69488
4352	182912	144368
4480	164560	124016
4608	97568	52192
4736	96992	59056
4864	163920	130096
4992	158048	124960
5120	83824	45824
5248	101072	69552
5376	138704	114928
5504	104672	77856
5632	95744	68544
5760	118272	95088
5888	97456	75216
6016	82320	57840
6144	95952	74896
6272	91648	72384
6400	65312	44960
6528	81040	63232
6656	76576	61600
6784	59584	40928
6912	70176	52960
7040	69760	55360
7168	57728	41984
7296	52624	38864
7424	47552	33728
7552	50816	36672
7680	51792	39616
7808	42880	30528
7936	44240	30928
8064	41472	30256
8192	76496	55552
8448	67776	47952
8704	59488	41488
8960	52096	35744
9216	44752	30224
9472	38464	24384
9728	34544	23984
9984	28640	17616
10240	30208	19872
10496	26208	16896
10752	22224	14192
11008	24480	16176
11264	19792	12368
11520	19152	12352
11776	19232	13200
12032	19056	12384
12288	19728	12512
12544	18944	13824
12800	18384	13312
13056	18048	12864
13312	20400	14960
13568	19664	13488
13824	19632	14656
14080	17984	13088
14336	18832	13904
14592	22032	15680
14848	21344	15760
15104	22784	17104
15360	24704	18960
15616	22592	16976
15872	24320	18240
16128	26352	20400
16384	58448	45536
16896	62064	48656
17408	74704	58384
17920	83168	65552
18432	94240	74384
18944	97872	77456
19456	108816	85584
19968	128752	100192
20480	136992	107872
20992	146112	114112
21504	160096	124704
22016	173840	134736
22528	188288	145872
23040	199152	152352
23552	218896	167376
24064	232704	175920
24576	242032	182592
25088	262336	196992
25600	264160	198432
26112	275120	204656
26624	286032	211424
27136	292240	215520
27648	308336	225184
28160	318416	232016
28672	312496	227600
29184	315504	224832
29696	314976	221456
30208	312144	219808
30720	308848	217216
31232	299456	206496
31744	290528	203360
32256	292768	201888
32768	530656	367776
33792	474784	325024
34816	421472	285328
35840	359424	242720
36864	296176	196544
37888	233920	160768
38912	193024	130000
39936	164688	111776
40960	111856	77312
41984	91824	64544
43008	78512	54272
44032	55232	38016
45056	47520	32176
46080	30016	21872
47104	26864	18256
48128	21984	16736
49152	17648	12656
50176	12928	9904
51200	10560	8480
52224	8288	6976
53248	9264	7696
54272	9104	7968
55296	8384	7440
56320	7392	6976
57344	8496	8096
58368	7952	7376
59392	7616	7264
60416	8816	8256
61440	9024	8576
62464	9424	9056
63488	9216	8864
64512	9184	8912
65536	16944	16080
67584	17040	16496
69632	16176	15504
71680	15808	15232
73728	14256	13824
75776	14848	14448
77824	10048	9680
79872	8896	8560
81920	7760	7488
83968	7424	7168
86016	8480	8160
88064	8240	7984
90112	8784	8592
92160	8128	7776
94208	8464	8304
96256	8704	8400
98304	8208	7888
100352	8112	7696
102400	8576	8320
104448	7280	6960
106496	7296	7040
108544	6656	6528
110592	5952	5696
112640	6480	6176
114688	7168	7008
116736	7696	7472
118784	11536	11312
120832	16160	15872
122880	24224	23808
124928	18176	17696
126976	40832	40368
129024	23776	23584
131072	43248	42368
135168	13104	12400
139264	12848	9712
143360	24272	9120
147456	39984	7664
151552	8704	8432
155648	7872	7648
159744	7872	7472
163840	8080	7808
167936	6960	6720
172032	6960	6752
176128	6816	6400
180224	7840	5824
184320	9056	6736
188416	7952	5472
192512	9360	5856
196608	11072	5600
200704	11312	5808
204800	5280	5152
208896	4944	4784
212992	5328	5136
217088	4944	4784
221184	5136	4912
225280	5440	5104
229376	4432	4320
233472	4688	4576
237568	4128	3904
241664	4736	4528
245760	4736	4464
249856	4240	4016
253952	4608	4336
258048	4208	4016
262144	9200	8880
270336	83840	50832
278528	35904	17632
286720	7760	7328
294912	7232	6864
303104	5984	5616
311296	22528	16464
319488	16336	6256
327680	21104	16688
335872	4672	4464
344064	5232	5200
352256	5520	5440
360448	5968	5872
368640	4720	4608
376832	5056	4944
385024	4640	4416
393216	5088	4944
401408	3792	3744
409600	4576	4480
417792	4192	4064
425984	3696	3552
434176	4528	4352
442368	3808	3808
450560	3472	3456
458752	3712	3648
466944	3104	3056
475136	3056	2960
483328	3184	3136
491520	2864	2800
499712	2768	2736
507904	3104	3088
516096	3072	3008
524288	6432	6288
540672	6176	6096
557056	5824	5632
573440	4896	4768
589824	5184	5120
606208	4864	4800
622592	4208	4096
638976	4560	4512
655360	4688	4464
671744	4656	4560
688128	4480	4432
704512	4016	3936
720896	4352	4288
737280	3856	3808
753664	4448	4368
770048	3488	3344
786432	3744	3600
802816	3248	3152
819200	3984	3904
835584	3360	3264
851968	3040	2928
868352	3664	3600
884736	3168	3088
901120	2752	2640
917504	2496	2464
933888	2896	2864
950272	2928	2800
966656	2864	2784
983040	2592	2560
999424	2832	2784
1015808	2880	2832
1032192	2768	2736
1048576	6032	5968
1081344	6080	5920
1114112	5120	5104
1146880	5280	5136
1179648	4880	4880
1212416	5136	5040
1245184	4736	4672
1277952	4496	4448
1310720	4784	4704
1343488	4336	4256
1376256	3712	3504
1409024	3664	3584
1441792	3504	3440
1474560	3136	3040
1507328	2608	2592
1540096	2688	2624
1572864	2464	2464
1605632	3280	3168
1638400	2080	2048
1671168	2192	2112
1703936	1840	1840
1736704	1920	1840
1769472	1760	1696
1802240	1984	1952
1835008	1904	1840
1867776	1984	1824
1900544	1360	1296
1933312	1776	1696
1966080	1664	1552
1998848	1232	1152
2031616	1200	1088
2064384	1584	1536
2097152	2176	2096
2162688	1968	1904
2228224	2208	2176
2293760	3696	3664
2359296	3024	2992
2424832	3952	3888
2490368	3856	3760
2555904	2208	2144
2621440	1888	1776
2686976	2000	1856
2752512	1600	1456
2818048	11120	1568
2883584	1344	1328
2949120	11520	11472
3014656	1056	1024
3080192	1296	1280
3145728	1264	1264
3211264	1152	1088
3276800	1216	1200
3342336	1600	1536
3407872	864	848
3473408	928	880
3538944	960	880
3604480	928	896
3670016	976	960
3735552	1136	1040
3801088	864	816
3866624	848	800
3932160	704	688
3997696	816	784
4063232	688	688
4128768	832	816
4194304	1072	1056
4325376	912	896
4456448	848	832
4587520	1152	1072
4718592	1200	1168
4849664	1472	1360
4980736	928	928
5111808	976	960
5242880	752	720
5373952	720	672
5505024	896	832
5636096	896	816
5767168	432	368
5898240	848	720
6029312	1408	1344
6160384	1136	1024
6291456	480	464
6422528	672	608
6553600	720	672
6684672	896	848
6815744	944	912
6946816	320	272
7077888	464	464
7208960	448	432
7340032	480	400
7471104	464	432
7602176	304	288
7733248	528	528
7864320	608	560
7995392	432	400
8126464	368	320
8257536	432	400
8388608	1040	1008
8650752	576	512
8912896	528	512
9175040	464	400
9437184	800	752
9699328	784	720
9961472	768	736
10223616	624	528
10485760	544	528
10747904	400	368
11010048	496	448
11272192	544	528
11534336	592	544
11796480	528	480
12058624	224	192
12320768	240	224
12582912	352	256
12845056	272	256
13107200	384	320
13369344	640	624
13631488	320	320
13893632	176	176
14155776	240	128
14417920	320	288
14680064	240	240
14942208	288	208
15204352	416	384
15466496	256	224
15728640	272	272
15990784	384	272
16252928	320	304
16515072	224	208
16777216	832	736
17301504	432	368
17825792	608	544
18350080	400	304
18874368	224	176
19398656	448	384
19922944	368	320
20447232	352	352
20971520	512	320
21495808	464	352
22020096	512	384
22544384	656	464
23068672	336	112
23592960	496	416
24117248	160	128
24641536	224	224
25165824	192	192
25690112	272	160
26214400	336	272
26738688	384	256
27262976	272	224
27787264	336	224
28311552	400	272
28835840	352	304
29360128	480	384
29884416	128	96
30408704	496	496
30932992	224	144
31457280	512	432
31981568	320	96
32505856	208	112
33030144	256	192
33554432	256	160
34603008	464	288
35651584	336	240
36700160	352	288
37748736	272	128
38797312	272	144
39845888	224	96
40894464	384	256
41943040	160	96
42991616	352	208
44040192	224	80
45088768	336	176
46137344	480	368
47185920	192	128
48234496	464	272
49283072	272	112
50331648	160	128
51380224	304	144
52428800	208	16
53477376	368	144
54525952	176	48
55574528	224	80
56623104	112	48
57671680	304	160
58720256	352	176
59768832	176	64
60817408	30352	10848
61865984	29968	10240
62914560	240	96
63963136	48240	10192
65011712	71440	31584
66060288	19936	10352
67108864	1392	80
69206016	9984	208
71303168	320	32
73400320	112	112
75497472	80	80
77594624	112	112
79691776	288	288
81788928	1376	1376
83886080	256	256
85983232	336	320
88080384	128	128
90177536	144	144
92274688	208	208
94371840	160	160
96468992	144	144
98566144	112	112
100663296	128	128
102760448	80	80
104857600	128	128
106954752	128	128
109051904	128	128
111149056	32	32
113246208	32	32
115343360	144	144
117440512	48	48
119537664	32	32
121634816	112	112
123731968	96	96
125829120	0	0
127926272	64	64
130023424	112	112
132120576	1248	96
134217728	240	144
138412032	96	96
142606336	112	112
146800640	144	144
150994944	240	240
155189248	112	112
159383552	96	96
163577856	0	0
167772160	208	208
171966464	128	128
176160768	128	128
180355072	80	64
184549376	112	112
188743680	80	80
192937984	16	16
197132288	1120	64
201326592	48	48
205520896	0	0
209715200	224	224
213909504	64	64
218103808	32	32
222298112	112	112
226492416	16	16
230686720	16	16
234881024	16	16
239075328	48	48
243269632	96	96
247463936	0	0
251658240	0	0
255852544	16	16
260046848	960	16
264241152	16	16
268435456	0	0
276824064	16	16
285212672	0	0
293601280	16	16
301989888	0	0
310378496	0	0
318767104	0	0
327155712	0	0
335544320	0	0
343932928	0	0
352321536	0	0
360710144	16	16
369098752	16	16
377487360	0	0
385875968	0	0
394264576	16	16
402653184	16	16
411041792	0	0
419430400	0	0
427819008	0	0
436207616	0	0
444596224	0	0
452984832	0	0
461373440	0	0
469762048	16	16
478150656	0	0
486539264	0	0
494927872	0	0
503316480	0	0
511705088	0	0
520093696	0	0
528482304	0	0
536870912	0	0
553648128	0	0
570425344	0	0
587202560	0	0
603979776	0	0
620756992	0	0
637534208	0	0
654311424	0	0
671088640	0	0
687865856	0	0
704643072	0	0
721420288	0	0
738197504	0	0
754974720	0	0
771751936	0	0
788529152	0	0
805306368	0	0
822083584	0	0
838860800	0	0
855638016	0	0
872415232	0	0
889192448	0	0
905969664	0	0
922746880	0	0
939524096	0	0
956301312	0	0
973078528	0	0
989855744	0	0
1006632960	0	0
1023410176	0	0
1040187392	0	0
1056964608	0	0
1073741824	0	0
1107296256	0	0
1140850688	0	0
1174405120	0	0
1207959552	0	0
1241513984	0	0
1275068416	0	0
1308622848	0	0
1342177280	0	0
1375731712	0	0
1409286144	0	0
1442840576	0	0
1476395008	0	0
1509949440	0	0
1543503872	0	0
1577058304	0	0
1610612736	0	0
1644167168	0	0
1677721600	0	0
1711276032	0	0
1744830464	0	0
1778384896	0	0
1811939328	0	0
1845493760	0	0
1879048192	0	0
1912602624	0	0
1946157056	0	0
1979711488	0	0
2013265920	0	0
2046820352	0	0
2080374784	0	0
2113929216	0	0
2147483648	0	0
2214592512	0	0
2281701376	0	0
2348810240	0	0
2415919104	0	0
2483027968	0	0
2550136832	0	0
2617245696	0	0
2684354560	0	0
2751463424	0	0
2818572288	0	0
2885681152	0	0
2952790016	0	0
3019898880	0	0
3087007744	0	0
3154116608	0	0
3221225472	0	0
3288334336	0	0
3355443200	0	0
3422552064	0	0
3489660928	0	0
3556769792	0	0
3623878656	0	0
3690987520	0	0
3758096384	0	0
3825205248	0	0
3892314112	0	0
3959422976	0	0
4026531840	0	0
4093640704	0	0
4160749568	0	0
4227858432	0	0
~~~~~~~~~~Reuse Distance Profiler output end~~~~~~~~~~

DRAM Statistics
 CHANNEL 0
 RQ ROW_BUFFER_HIT:      35558  ROW_BUFFER_MISS:     188293
 DBUS AVG_CONGESTED_CYCLE:    3.91869
 WQ ROW_BUFFER_HIT:      21674  ROW_BUFFER_MISS:     105918  FULL:          0


CPU 0 Branch Prediction Accuracy: 86.4561% MPKI: 23.7095 Average ROB Occupancy at Mispredict: 20.3276
Branch type MPKI
BRANCH_DIRECT_JUMP: 3.73333e-05
BRANCH_INDIRECT: 0.003026
BRANCH_CONDITIONAL: 23.7061
BRANCH_DIRECT_CALL: 0.000108667
BRANCH_INDIRECT_CALL: 9.93333e-05
BRANCH_RETURN: 0.000169333

