
*** ChampSim Multicore Out-of-Order Simulator ***

Warmup Instructions: 500000000
Simulation Instructions: 1500000000
Number of CPUs: 1
Off-chip DRAM Size: 4 GiB Channels: 1 Width: 64-bit Data Rate: 3200 MT/s

VirtualMemory physical capacity: 8588881920 num_ppages: 2096895
VirtualMemory page size: 4096 log2_page_size: 12

CPU 0 runs traces/644.nab_s-12459B.champsimtrace.xz
CPU 0 Bimodal branch predictor
Basic BTB sets: 1024 ways: 8 indirect buffer size: 4096 RAS size: 64
Initializing LRU.
Initializing LRU.
Initializing LRU.
Initializing LRU.
Initializing rdLRU.
Initializing LRU.
Initializing LRU.
Heartbeat CPU 0 instructions: 10000001 cycles: 2511159 heartbeat IPC: 3.98223 cumulative IPC: 3.98223 (Simulation time: 0 hr 0 min 47 sec) 
Heartbeat CPU 0 instructions: 20000001 cycles: 5023564 heartbeat IPC: 3.98025 cumulative IPC: 3.98124 (Simulation time: 0 hr 1 min 27 sec) 
Heartbeat CPU 0 instructions: 30000001 cycles: 7534875 heartbeat IPC: 3.98198 cumulative IPC: 3.98149 (Simulation time: 0 hr 2 min 10 sec) 
Heartbeat CPU 0 instructions: 40000003 cycles: 10046447 heartbeat IPC: 3.98157 cumulative IPC: 3.98151 (Simulation time: 0 hr 3 min 3 sec) 
Heartbeat CPU 0 instructions: 50000003 cycles: 12557336 heartbeat IPC: 3.98265 cumulative IPC: 3.98174 (Simulation time: 0 hr 3 min 52 sec) 
Heartbeat CPU 0 instructions: 60000003 cycles: 15069176 heartbeat IPC: 3.98115 cumulative IPC: 3.98164 (Simulation time: 0 hr 4 min 43 sec) 
Heartbeat CPU 0 instructions: 70000003 cycles: 17580994 heartbeat IPC: 3.98118 cumulative IPC: 3.98157 (Simulation time: 0 hr 5 min 36 sec) 
Heartbeat CPU 0 instructions: 80000001 cycles: 20093057 heartbeat IPC: 3.98079 cumulative IPC: 3.98147 (Simulation time: 0 hr 6 min 28 sec) 
Heartbeat CPU 0 instructions: 90000002 cycles: 22604500 heartbeat IPC: 3.98178 cumulative IPC: 3.98151 (Simulation time: 0 hr 7 min 16 sec) 
Heartbeat CPU 0 instructions: 100000001 cycles: 25116602 heartbeat IPC: 3.98073 cumulative IPC: 3.98143 (Simulation time: 0 hr 8 min 6 sec) 
Heartbeat CPU 0 instructions: 110000002 cycles: 27628580 heartbeat IPC: 3.98093 cumulative IPC: 3.98138 (Simulation time: 0 hr 8 min 57 sec) 
Heartbeat CPU 0 instructions: 120000000 cycles: 30139878 heartbeat IPC: 3.982 cumulative IPC: 3.98144 (Simulation time: 0 hr 9 min 50 sec) 
Heartbeat CPU 0 instructions: 130000001 cycles: 32652890 heartbeat IPC: 3.97929 cumulative IPC: 3.98127 (Simulation time: 0 hr 10 min 44 sec) 
Heartbeat CPU 0 instructions: 140000000 cycles: 35167119 heartbeat IPC: 3.97736 cumulative IPC: 3.98099 (Simulation time: 0 hr 11 min 38 sec) 
Heartbeat CPU 0 instructions: 150000003 cycles: 37681571 heartbeat IPC: 3.97701 cumulative IPC: 3.98073 (Simulation time: 0 hr 12 min 28 sec) 
Heartbeat CPU 0 instructions: 160000000 cycles: 40195385 heartbeat IPC: 3.97802 cumulative IPC: 3.98056 (Simulation time: 0 hr 13 min 18 sec) 
Heartbeat CPU 0 instructions: 170000001 cycles: 42710919 heartbeat IPC: 3.9753 cumulative IPC: 3.98025 (Simulation time: 0 hr 14 min 11 sec) 
Heartbeat CPU 0 instructions: 180000003 cycles: 45224915 heartbeat IPC: 3.97773 cumulative IPC: 3.98011 (Simulation time: 0 hr 15 min 4 sec) 
Heartbeat CPU 0 instructions: 190000000 cycles: 47739772 heartbeat IPC: 3.97637 cumulative IPC: 3.97991 (Simulation time: 0 hr 15 min 57 sec) 
Heartbeat CPU 0 instructions: 200000003 cycles: 50254458 heartbeat IPC: 3.97664 cumulative IPC: 3.97975 (Simulation time: 0 hr 16 min 50 sec) 
Heartbeat CPU 0 instructions: 210000000 cycles: 52767924 heartbeat IPC: 3.97857 cumulative IPC: 3.97969 (Simulation time: 0 hr 17 min 41 sec) 
Heartbeat CPU 0 instructions: 220000000 cycles: 55280128 heartbeat IPC: 3.98057 cumulative IPC: 3.97973 (Simulation time: 0 hr 18 min 27 sec) 
Heartbeat CPU 0 instructions: 230000003 cycles: 57793923 heartbeat IPC: 3.97805 cumulative IPC: 3.97966 (Simulation time: 0 hr 19 min 17 sec) 
Heartbeat CPU 0 instructions: 240000003 cycles: 60306568 heartbeat IPC: 3.97987 cumulative IPC: 3.97967 (Simulation time: 0 hr 20 min 6 sec) 
Heartbeat CPU 0 instructions: 250000002 cycles: 62820954 heartbeat IPC: 3.97711 cumulative IPC: 3.97956 (Simulation time: 0 hr 20 min 56 sec) 
Heartbeat CPU 0 instructions: 260000003 cycles: 65336510 heartbeat IPC: 3.97526 cumulative IPC: 3.9794 (Simulation time: 0 hr 21 min 50 sec) 
Heartbeat CPU 0 instructions: 270000001 cycles: 67849115 heartbeat IPC: 3.97993 cumulative IPC: 3.97942 (Simulation time: 0 hr 22 min 44 sec) 
Heartbeat CPU 0 instructions: 280000002 cycles: 70362587 heartbeat IPC: 3.97856 cumulative IPC: 3.97939 (Simulation time: 0 hr 23 min 34 sec) 
Heartbeat CPU 0 instructions: 290000003 cycles: 72875745 heartbeat IPC: 3.97906 cumulative IPC: 3.97938 (Simulation time: 0 hr 24 min 23 sec) 
Heartbeat CPU 0 instructions: 300000003 cycles: 75388776 heartbeat IPC: 3.97926 cumulative IPC: 3.97937 (Simulation time: 0 hr 25 min 15 sec) 
Heartbeat CPU 0 instructions: 310000001 cycles: 77900314 heartbeat IPC: 3.98162 cumulative IPC: 3.97944 (Simulation time: 0 hr 26 min 6 sec) 
Heartbeat CPU 0 instructions: 320000003 cycles: 80413012 heartbeat IPC: 3.97979 cumulative IPC: 3.97946 (Simulation time: 0 hr 26 min 55 sec) 
Heartbeat CPU 0 instructions: 330000001 cycles: 82925423 heartbeat IPC: 3.98024 cumulative IPC: 3.97948 (Simulation time: 0 hr 27 min 48 sec) 
Heartbeat CPU 0 instructions: 340000003 cycles: 85436612 heartbeat IPC: 3.98218 cumulative IPC: 3.97956 (Simulation time: 0 hr 28 min 36 sec) 
Heartbeat CPU 0 instructions: 350000002 cycles: 87949367 heartbeat IPC: 3.9797 cumulative IPC: 3.97956 (Simulation time: 0 hr 29 min 23 sec) 
Heartbeat CPU 0 instructions: 360000001 cycles: 90461920 heartbeat IPC: 3.98002 cumulative IPC: 3.97958 (Simulation time: 0 hr 30 min 15 sec) 
Heartbeat CPU 0 instructions: 370000003 cycles: 92975244 heartbeat IPC: 3.9788 cumulative IPC: 3.97955 (Simulation time: 0 hr 31 min 5 sec) 
Heartbeat CPU 0 instructions: 380000000 cycles: 95487566 heartbeat IPC: 3.98038 cumulative IPC: 3.97958 (Simulation time: 0 hr 31 min 56 sec) 
Heartbeat CPU 0 instructions: 390000000 cycles: 97999301 heartbeat IPC: 3.98131 cumulative IPC: 3.97962 (Simulation time: 0 hr 32 min 49 sec) 
Heartbeat CPU 0 instructions: 400000002 cycles: 100512006 heartbeat IPC: 3.97978 cumulative IPC: 3.97962 (Simulation time: 0 hr 33 min 39 sec) 
Heartbeat CPU 0 instructions: 410000002 cycles: 103023392 heartbeat IPC: 3.98186 cumulative IPC: 3.97968 (Simulation time: 0 hr 34 min 32 sec) 
Heartbeat CPU 0 instructions: 420000003 cycles: 105536342 heartbeat IPC: 3.97939 cumulative IPC: 3.97967 (Simulation time: 0 hr 35 min 26 sec) 
Heartbeat CPU 0 instructions: 430000002 cycles: 108048906 heartbeat IPC: 3.98 cumulative IPC: 3.97968 (Simulation time: 0 hr 36 min 16 sec) 
Heartbeat CPU 0 instructions: 440000001 cycles: 110561739 heartbeat IPC: 3.97957 cumulative IPC: 3.97968 (Simulation time: 0 hr 37 min 2 sec) 
Heartbeat CPU 0 instructions: 450000003 cycles: 113075221 heartbeat IPC: 3.97855 cumulative IPC: 3.97965 (Simulation time: 0 hr 37 min 45 sec) 
Heartbeat CPU 0 instructions: 460000002 cycles: 115589202 heartbeat IPC: 3.97775 cumulative IPC: 3.97961 (Simulation time: 0 hr 38 min 28 sec) 
Heartbeat CPU 0 instructions: 470000001 cycles: 118103230 heartbeat IPC: 3.97768 cumulative IPC: 3.97957 (Simulation time: 0 hr 39 min 12 sec) 
Heartbeat CPU 0 instructions: 480000000 cycles: 120618707 heartbeat IPC: 3.97539 cumulative IPC: 3.97948 (Simulation time: 0 hr 40 min 5 sec) 
Heartbeat CPU 0 instructions: 490000001 cycles: 123132967 heartbeat IPC: 3.97731 cumulative IPC: 3.97944 (Simulation time: 0 hr 40 min 55 sec) 
Heartbeat CPU 0 instructions: 500000001 cycles: 125648386 heartbeat IPC: 3.97548 cumulative IPC: 3.97936 (Simulation time: 0 hr 41 min 44 sec) 

Warmup complete CPU 0 instructions: 500000001 cycles: 125648386 (Simulation time: 0 hr 41 min 44 sec) 

Heartbeat CPU 0 instructions: 510000004 cycles: 133308501 heartbeat IPC: 1.30546 cumulative IPC: 1.30546 (Simulation time: 0 hr 42 min 37 sec) 
Heartbeat CPU 0 instructions: 520000000 cycles: 140975423 heartbeat IPC: 1.3043 cumulative IPC: 1.30488 (Simulation time: 0 hr 43 min 25 sec) 
Heartbeat CPU 0 instructions: 530000003 cycles: 148617020 heartbeat IPC: 1.30863 cumulative IPC: 1.30613 (Simulation time: 0 hr 44 min 15 sec) 
Heartbeat CPU 0 instructions: 540000000 cycles: 156313764 heartbeat IPC: 1.29925 cumulative IPC: 1.3044 (Simulation time: 0 hr 45 min 6 sec) 
Heartbeat CPU 0 instructions: 550000003 cycles: 164029788 heartbeat IPC: 1.296 cumulative IPC: 1.30271 (Simulation time: 0 hr 45 min 56 sec) 
Heartbeat CPU 0 instructions: 560000000 cycles: 171774241 heartbeat IPC: 1.29125 cumulative IPC: 1.30079 (Simulation time: 0 hr 46 min 41 sec) 
Heartbeat CPU 0 instructions: 570000002 cycles: 179540124 heartbeat IPC: 1.28768 cumulative IPC: 1.2989 (Simulation time: 0 hr 47 min 30 sec) 
Heartbeat CPU 0 instructions: 580000000 cycles: 187262345 heartbeat IPC: 1.29496 cumulative IPC: 1.29841 (Simulation time: 0 hr 48 min 25 sec) 
Heartbeat CPU 0 instructions: 590000001 cycles: 194998158 heartbeat IPC: 1.29269 cumulative IPC: 1.29777 (Simulation time: 0 hr 49 min 18 sec) 
Heartbeat CPU 0 instructions: 600000000 cycles: 202815552 heartbeat IPC: 1.2792 cumulative IPC: 1.29589 (Simulation time: 0 hr 50 min 8 sec) 
Heartbeat CPU 0 instructions: 610000001 cycles: 210545112 heartbeat IPC: 1.29373 cumulative IPC: 1.29569 (Simulation time: 0 hr 50 min 54 sec) 
Heartbeat CPU 0 instructions: 620000000 cycles: 218267819 heartbeat IPC: 1.29488 cumulative IPC: 1.29562 (Simulation time: 0 hr 51 min 47 sec) 
Heartbeat CPU 0 instructions: 630000004 cycles: 225951818 heartbeat IPC: 1.30141 cumulative IPC: 1.29607 (Simulation time: 0 hr 52 min 33 sec) 
Heartbeat CPU 0 instructions: 640000001 cycles: 233691822 heartbeat IPC: 1.29199 cumulative IPC: 1.29578 (Simulation time: 0 hr 53 min 6 sec) 
Heartbeat CPU 0 instructions: 650000001 cycles: 241438270 heartbeat IPC: 1.29091 cumulative IPC: 1.29545 (Simulation time: 0 hr 53 min 57 sec) 
Heartbeat CPU 0 instructions: 660000001 cycles: 249165893 heartbeat IPC: 1.29406 cumulative IPC: 1.29536 (Simulation time: 0 hr 54 min 49 sec) 
Heartbeat CPU 0 instructions: 670000004 cycles: 256881265 heartbeat IPC: 1.29611 cumulative IPC: 1.29541 (Simulation time: 0 hr 55 min 39 sec) 
Heartbeat CPU 0 instructions: 680000000 cycles: 264530531 heartbeat IPC: 1.30731 cumulative IPC: 1.29606 (Simulation time: 0 hr 56 min 27 sec) 
Heartbeat CPU 0 instructions: 690000001 cycles: 272332612 heartbeat IPC: 1.28171 cumulative IPC: 1.2953 (Simulation time: 0 hr 57 min 19 sec) 
Heartbeat CPU 0 instructions: 700000000 cycles: 280165641 heartbeat IPC: 1.27665 cumulative IPC: 1.29435 (Simulation time: 0 hr 58 min 8 sec) 
Heartbeat CPU 0 instructions: 710000000 cycles: 287882866 heartbeat IPC: 1.2958 cumulative IPC: 1.29442 (Simulation time: 0 hr 58 min 57 sec) 
Heartbeat CPU 0 instructions: 720000001 cycles: 295566545 heartbeat IPC: 1.30146 cumulative IPC: 1.29474 (Simulation time: 0 hr 59 min 51 sec) 
Heartbeat CPU 0 instructions: 730000004 cycles: 303391342 heartbeat IPC: 1.27799 cumulative IPC: 1.294 (Simulation time: 1 hr 0 min 37 sec) 
Heartbeat CPU 0 instructions: 740000004 cycles: 311292510 heartbeat IPC: 1.26564 cumulative IPC: 1.2928 (Simulation time: 1 hr 1 min 27 sec) 
Heartbeat CPU 0 instructions: 750000002 cycles: 319163109 heartbeat IPC: 1.27055 cumulative IPC: 1.29189 (Simulation time: 1 hr 2 min 18 sec) 
Heartbeat CPU 0 instructions: 760000001 cycles: 326908587 heartbeat IPC: 1.29108 cumulative IPC: 1.29186 (Simulation time: 1 hr 3 min 7 sec) 
Heartbeat CPU 0 instructions: 770000001 cycles: 334673074 heartbeat IPC: 1.28792 cumulative IPC: 1.29171 (Simulation time: 1 hr 3 min 55 sec) 
Heartbeat CPU 0 instructions: 780000000 cycles: 342548807 heartbeat IPC: 1.26972 cumulative IPC: 1.29092 (Simulation time: 1 hr 4 min 45 sec) 
Heartbeat CPU 0 instructions: 790000001 cycles: 350389369 heartbeat IPC: 1.27542 cumulative IPC: 1.29037 (Simulation time: 1 hr 5 min 35 sec) 
Heartbeat CPU 0 instructions: 800000002 cycles: 358204893 heartbeat IPC: 1.2795 cumulative IPC: 1.29001 (Simulation time: 1 hr 6 min 28 sec) 
Heartbeat CPU 0 instructions: 810000004 cycles: 365915511 heartbeat IPC: 1.29691 cumulative IPC: 1.29023 (Simulation time: 1 hr 7 min 15 sec) 
Heartbeat CPU 0 instructions: 820000004 cycles: 373732635 heartbeat IPC: 1.27924 cumulative IPC: 1.28988 (Simulation time: 1 hr 8 min 6 sec) 
Heartbeat CPU 0 instructions: 830000002 cycles: 381565828 heartbeat IPC: 1.27662 cumulative IPC: 1.28948 (Simulation time: 1 hr 8 min 55 sec) 
Heartbeat CPU 0 instructions: 840000002 cycles: 389350176 heartbeat IPC: 1.28463 cumulative IPC: 1.28934 (Simulation time: 1 hr 9 min 37 sec) 
Heartbeat CPU 0 instructions: 850000001 cycles: 397116964 heartbeat IPC: 1.28753 cumulative IPC: 1.28928 (Simulation time: 1 hr 10 min 13 sec) 
Heartbeat CPU 0 instructions: 860000000 cycles: 404952941 heartbeat IPC: 1.27616 cumulative IPC: 1.28892 (Simulation time: 1 hr 11 min 10 sec) 
Heartbeat CPU 0 instructions: 870000002 cycles: 412750138 heartbeat IPC: 1.28251 cumulative IPC: 1.28874 (Simulation time: 1 hr 12 min 7 sec) 
Heartbeat CPU 0 instructions: 880000000 cycles: 420585437 heartbeat IPC: 1.27628 cumulative IPC: 1.28841 (Simulation time: 1 hr 13 min 1 sec) 
Heartbeat CPU 0 instructions: 890000001 cycles: 428389603 heartbeat IPC: 1.28137 cumulative IPC: 1.28823 (Simulation time: 1 hr 13 min 55 sec) 
Heartbeat CPU 0 instructions: 900000000 cycles: 436217248 heartbeat IPC: 1.27752 cumulative IPC: 1.28796 (Simulation time: 1 hr 14 min 50 sec) 
Heartbeat CPU 0 instructions: 910000000 cycles: 443972409 heartbeat IPC: 1.28946 cumulative IPC: 1.288 (Simulation time: 1 hr 15 min 32 sec) 
Heartbeat CPU 0 instructions: 920000002 cycles: 451681552 heartbeat IPC: 1.29716 cumulative IPC: 1.28821 (Simulation time: 1 hr 16 min 22 sec) 
Heartbeat CPU 0 instructions: 930000001 cycles: 459447995 heartbeat IPC: 1.28759 cumulative IPC: 1.2882 (Simulation time: 1 hr 17 min 0 sec) 
Heartbeat CPU 0 instructions: 940000001 cycles: 467185247 heartbeat IPC: 1.29245 cumulative IPC: 1.28829 (Simulation time: 1 hr 17 min 55 sec) 
Heartbeat CPU 0 instructions: 950000003 cycles: 474812623 heartbeat IPC: 1.31107 cumulative IPC: 1.28879 (Simulation time: 1 hr 18 min 46 sec) 
Heartbeat CPU 0 instructions: 960000001 cycles: 482487217 heartbeat IPC: 1.303 cumulative IPC: 1.2891 (Simulation time: 1 hr 19 min 21 sec) 
Heartbeat CPU 0 instructions: 970000004 cycles: 490204760 heartbeat IPC: 1.29575 cumulative IPC: 1.28924 (Simulation time: 1 hr 19 min 52 sec) 
Heartbeat CPU 0 instructions: 980000000 cycles: 497899868 heartbeat IPC: 1.29953 cumulative IPC: 1.28945 (Simulation time: 1 hr 20 min 41 sec) 
Heartbeat CPU 0 instructions: 990000000 cycles: 505586486 heartbeat IPC: 1.30096 cumulative IPC: 1.28968 (Simulation time: 1 hr 21 min 25 sec) 
Heartbeat CPU 0 instructions: 1000000001 cycles: 513249520 heartbeat IPC: 1.30497 cumulative IPC: 1.28999 (Simulation time: 1 hr 22 min 15 sec) 
Heartbeat CPU 0 instructions: 1010000002 cycles: 520949370 heartbeat IPC: 1.29873 cumulative IPC: 1.29016 (Simulation time: 1 hr 23 min 9 sec) 
Heartbeat CPU 0 instructions: 1020000000 cycles: 528763174 heartbeat IPC: 1.27979 cumulative IPC: 1.28996 (Simulation time: 1 hr 24 min 3 sec) 
Heartbeat CPU 0 instructions: 1030000001 cycles: 536535875 heartbeat IPC: 1.28655 cumulative IPC: 1.28989 (Simulation time: 1 hr 24 min 52 sec) 
Heartbeat CPU 0 instructions: 1040000003 cycles: 544237858 heartbeat IPC: 1.29837 cumulative IPC: 1.29005 (Simulation time: 1 hr 25 min 44 sec) 
Heartbeat CPU 0 instructions: 1050000000 cycles: 552031930 heartbeat IPC: 1.28303 cumulative IPC: 1.28992 (Simulation time: 1 hr 26 min 41 sec) 
Heartbeat CPU 0 instructions: 1060000002 cycles: 559693430 heartbeat IPC: 1.30523 cumulative IPC: 1.29019 (Simulation time: 1 hr 27 min 28 sec) 
Heartbeat CPU 0 instructions: 1070000000 cycles: 567397557 heartbeat IPC: 1.29801 cumulative IPC: 1.29033 (Simulation time: 1 hr 28 min 20 sec) 
Heartbeat CPU 0 instructions: 1080000002 cycles: 575071728 heartbeat IPC: 1.30307 cumulative IPC: 1.29054 (Simulation time: 1 hr 29 min 12 sec) 
Heartbeat CPU 0 instructions: 1090000001 cycles: 582845428 heartbeat IPC: 1.28639 cumulative IPC: 1.29047 (Simulation time: 1 hr 30 min 2 sec) 
Heartbeat CPU 0 instructions: 1100000000 cycles: 590510980 heartbeat IPC: 1.30454 cumulative IPC: 1.2907 (Simulation time: 1 hr 30 min 57 sec) 
Heartbeat CPU 0 instructions: 1110000001 cycles: 598198861 heartbeat IPC: 1.30075 cumulative IPC: 1.29087 (Simulation time: 1 hr 31 min 44 sec) 
Heartbeat CPU 0 instructions: 1120000003 cycles: 605843115 heartbeat IPC: 1.30817 cumulative IPC: 1.29114 (Simulation time: 1 hr 32 min 32 sec) 
Heartbeat CPU 0 instructions: 1130000001 cycles: 613569549 heartbeat IPC: 1.29426 cumulative IPC: 1.29119 (Simulation time: 1 hr 33 min 26 sec) 
Heartbeat CPU 0 instructions: 1140000001 cycles: 621281097 heartbeat IPC: 1.29676 cumulative IPC: 1.29128 (Simulation time: 1 hr 34 min 19 sec) 
Heartbeat CPU 0 instructions: 1150000002 cycles: 628947999 heartbeat IPC: 1.30431 cumulative IPC: 1.29148 (Simulation time: 1 hr 35 min 7 sec) 
Heartbeat CPU 0 instructions: 1160000002 cycles: 636603402 heartbeat IPC: 1.30627 cumulative IPC: 1.2917 (Simulation time: 1 hr 35 min 53 sec) 
Heartbeat CPU 0 instructions: 1170000003 cycles: 644310962 heartbeat IPC: 1.29743 cumulative IPC: 1.29178 (Simulation time: 1 hr 36 min 45 sec) 
Heartbeat CPU 0 instructions: 1180000002 cycles: 651974693 heartbeat IPC: 1.30485 cumulative IPC: 1.29197 (Simulation time: 1 hr 37 min 35 sec) 
Heartbeat CPU 0 instructions: 1190000002 cycles: 659694804 heartbeat IPC: 1.29532 cumulative IPC: 1.29202 (Simulation time: 1 hr 38 min 23 sec) 
Heartbeat CPU 0 instructions: 1200000004 cycles: 667436794 heartbeat IPC: 1.29166 cumulative IPC: 1.29202 (Simulation time: 1 hr 39 min 17 sec) 
Heartbeat CPU 0 instructions: 1210000003 cycles: 675229987 heartbeat IPC: 1.28317 cumulative IPC: 1.29189 (Simulation time: 1 hr 40 min 9 sec) 
Heartbeat CPU 0 instructions: 1220000002 cycles: 682912520 heartbeat IPC: 1.30165 cumulative IPC: 1.29203 (Simulation time: 1 hr 40 min 50 sec) 
Heartbeat CPU 0 instructions: 1230000003 cycles: 690704504 heartbeat IPC: 1.28337 cumulative IPC: 1.29191 (Simulation time: 1 hr 41 min 43 sec) 
Heartbeat CPU 0 instructions: 1240000003 cycles: 698471989 heartbeat IPC: 1.28742 cumulative IPC: 1.29185 (Simulation time: 1 hr 42 min 36 sec) 
Heartbeat CPU 0 instructions: 1250000002 cycles: 706215654 heartbeat IPC: 1.29138 cumulative IPC: 1.29184 (Simulation time: 1 hr 43 min 30 sec) 
Heartbeat CPU 0 instructions: 1260000000 cycles: 714010813 heartbeat IPC: 1.28285 cumulative IPC: 1.29172 (Simulation time: 1 hr 44 min 23 sec) 
Heartbeat CPU 0 instructions: 1270000000 cycles: 721764812 heartbeat IPC: 1.28966 cumulative IPC: 1.29169 (Simulation time: 1 hr 45 min 9 sec) 
Heartbeat CPU 0 instructions: 1280000000 cycles: 729476201 heartbeat IPC: 1.29678 cumulative IPC: 1.29176 (Simulation time: 1 hr 45 min 54 sec) 
Heartbeat CPU 0 instructions: 1290000000 cycles: 737232232 heartbeat IPC: 1.28932 cumulative IPC: 1.29173 (Simulation time: 1 hr 46 min 45 sec) 
Heartbeat CPU 0 instructions: 1300000004 cycles: 745017995 heartbeat IPC: 1.2844 cumulative IPC: 1.29164 (Simulation time: 1 hr 47 min 38 sec) 
Heartbeat CPU 0 instructions: 1310000001 cycles: 752717514 heartbeat IPC: 1.29878 cumulative IPC: 1.29172 (Simulation time: 1 hr 48 min 29 sec) 
Heartbeat CPU 0 instructions: 1320000004 cycles: 760399321 heartbeat IPC: 1.30178 cumulative IPC: 1.29185 (Simulation time: 1 hr 49 min 21 sec) 
Heartbeat CPU 0 instructions: 1330000000 cycles: 768077176 heartbeat IPC: 1.30245 cumulative IPC: 1.29197 (Simulation time: 1 hr 50 min 16 sec) 
Heartbeat CPU 0 instructions: 1340000002 cycles: 775714286 heartbeat IPC: 1.3094 cumulative IPC: 1.29218 (Simulation time: 1 hr 51 min 5 sec) 
Heartbeat CPU 0 instructions: 1350000001 cycles: 783421953 heartbeat IPC: 1.29741 cumulative IPC: 1.29224 (Simulation time: 1 hr 51 min 53 sec) 
Heartbeat CPU 0 instructions: 1360000003 cycles: 791111770 heartbeat IPC: 1.30042 cumulative IPC: 1.29233 (Simulation time: 1 hr 52 min 39 sec) 
Heartbeat CPU 0 instructions: 1370000003 cycles: 798755836 heartbeat IPC: 1.3082 cumulative IPC: 1.29251 (Simulation time: 1 hr 53 min 32 sec) 
Heartbeat CPU 0 instructions: 1380000001 cycles: 806330798 heartbeat IPC: 1.32014 cumulative IPC: 1.29282 (Simulation time: 1 hr 54 min 11 sec) 
Heartbeat CPU 0 instructions: 1390000002 cycles: 813999583 heartbeat IPC: 1.30399 cumulative IPC: 1.29294 (Simulation time: 1 hr 54 min 42 sec) 
Heartbeat CPU 0 instructions: 1400000000 cycles: 821715872 heartbeat IPC: 1.29596 cumulative IPC: 1.29298 (Simulation time: 1 hr 55 min 21 sec) 
Heartbeat CPU 0 instructions: 1410000000 cycles: 829374840 heartbeat IPC: 1.30566 cumulative IPC: 1.29312 (Simulation time: 1 hr 56 min 14 sec) 
Heartbeat CPU 0 instructions: 1420000000 cycles: 836990045 heartbeat IPC: 1.31316 cumulative IPC: 1.29333 (Simulation time: 1 hr 57 min 7 sec) 
Heartbeat CPU 0 instructions: 1430000000 cycles: 844677060 heartbeat IPC: 1.3009 cumulative IPC: 1.29341 (Simulation time: 1 hr 58 min 2 sec) 
Heartbeat CPU 0 instructions: 1440000002 cycles: 852266394 heartbeat IPC: 1.31764 cumulative IPC: 1.29366 (Simulation time: 1 hr 58 min 54 sec) 
Heartbeat CPU 0 instructions: 1450000002 cycles: 859846788 heartbeat IPC: 1.31919 cumulative IPC: 1.29393 (Simulation time: 1 hr 59 min 47 sec) 
Heartbeat CPU 0 instructions: 1460000004 cycles: 867509411 heartbeat IPC: 1.30504 cumulative IPC: 1.29404 (Simulation time: 2 hr 0 min 41 sec) 
Heartbeat CPU 0 instructions: 1470000000 cycles: 875026175 heartbeat IPC: 1.33036 cumulative IPC: 1.29441 (Simulation time: 2 hr 1 min 34 sec) 
Heartbeat CPU 0 instructions: 1480000000 cycles: 882552433 heartbeat IPC: 1.32868 cumulative IPC: 1.29475 (Simulation time: 2 hr 2 min 16 sec) 
Heartbeat CPU 0 instructions: 1490000000 cycles: 890103796 heartbeat IPC: 1.32426 cumulative IPC: 1.29504 (Simulation time: 2 hr 3 min 5 sec) 
Heartbeat CPU 0 instructions: 1500000000 cycles: 897645238 heartbeat IPC: 1.32601 cumulative IPC: 1.29534 (Simulation time: 2 hr 3 min 57 sec) 
Heartbeat CPU 0 instructions: 1510000002 cycles: 905154619 heartbeat IPC: 1.33167 cumulative IPC: 1.29569 (Simulation time: 2 hr 4 min 46 sec) 
Heartbeat CPU 0 instructions: 1520000000 cycles: 912693625 heartbeat IPC: 1.32643 cumulative IPC: 1.29599 (Simulation time: 2 hr 5 min 30 sec) 
Heartbeat CPU 0 instructions: 1530000001 cycles: 920250998 heartbeat IPC: 1.32321 cumulative IPC: 1.29625 (Simulation time: 2 hr 6 min 12 sec) 
Heartbeat CPU 0 instructions: 1540000000 cycles: 927883231 heartbeat IPC: 1.31023 cumulative IPC: 1.29638 (Simulation time: 2 hr 7 min 6 sec) 
Heartbeat CPU 0 instructions: 1550000000 cycles: 935460843 heartbeat IPC: 1.31968 cumulative IPC: 1.2966 (Simulation time: 2 hr 7 min 50 sec) 
Heartbeat CPU 0 instructions: 1560000000 cycles: 943137172 heartbeat IPC: 1.30271 cumulative IPC: 1.29665 (Simulation time: 2 hr 8 min 38 sec) 
Heartbeat CPU 0 instructions: 1570000002 cycles: 950821389 heartbeat IPC: 1.30137 cumulative IPC: 1.2967 (Simulation time: 2 hr 9 min 26 sec) 
Heartbeat CPU 0 instructions: 1580000002 cycles: 958528145 heartbeat IPC: 1.29756 cumulative IPC: 1.29671 (Simulation time: 2 hr 10 min 17 sec) 
Heartbeat CPU 0 instructions: 1590000002 cycles: 966187522 heartbeat IPC: 1.30559 cumulative IPC: 1.29679 (Simulation time: 2 hr 11 min 8 sec) 
Heartbeat CPU 0 instructions: 1600000003 cycles: 973761262 heartbeat IPC: 1.32035 cumulative IPC: 1.297 (Simulation time: 2 hr 12 min 2 sec) 
Heartbeat CPU 0 instructions: 1610000001 cycles: 981433599 heartbeat IPC: 1.30338 cumulative IPC: 1.29705 (Simulation time: 2 hr 12 min 47 sec) 
Heartbeat CPU 0 instructions: 1620000002 cycles: 989091889 heartbeat IPC: 1.30577 cumulative IPC: 1.29713 (Simulation time: 2 hr 13 min 40 sec) 
Heartbeat CPU 0 instructions: 1630000003 cycles: 996654620 heartbeat IPC: 1.32227 cumulative IPC: 1.29735 (Simulation time: 2 hr 14 min 24 sec) 
Heartbeat CPU 0 instructions: 1640000001 cycles: 1004222278 heartbeat IPC: 1.32141 cumulative IPC: 1.29756 (Simulation time: 2 hr 15 min 11 sec) 
Heartbeat CPU 0 instructions: 1650000003 cycles: 1011740871 heartbeat IPC: 1.33004 cumulative IPC: 1.29783 (Simulation time: 2 hr 15 min 55 sec) 
Heartbeat CPU 0 instructions: 1660000002 cycles: 1019279255 heartbeat IPC: 1.32654 cumulative IPC: 1.29808 (Simulation time: 2 hr 16 min 40 sec) 
Heartbeat CPU 0 instructions: 1670000002 cycles: 1026934139 heartbeat IPC: 1.30636 cumulative IPC: 1.29815 (Simulation time: 2 hr 17 min 31 sec) 
Heartbeat CPU 0 instructions: 1680000001 cycles: 1034501472 heartbeat IPC: 1.32147 cumulative IPC: 1.29834 (Simulation time: 2 hr 18 min 23 sec) 
Heartbeat CPU 0 instructions: 1690000002 cycles: 1042085675 heartbeat IPC: 1.31853 cumulative IPC: 1.29851 (Simulation time: 2 hr 19 min 4 sec) 
Heartbeat CPU 0 instructions: 1700000000 cycles: 1049749049 heartbeat IPC: 1.30491 cumulative IPC: 1.29856 (Simulation time: 2 hr 19 min 57 sec) 
Heartbeat CPU 0 instructions: 1710000002 cycles: 1057344960 heartbeat IPC: 1.3165 cumulative IPC: 1.29871 (Simulation time: 2 hr 20 min 42 sec) 
Heartbeat CPU 0 instructions: 1720000002 cycles: 1064903390 heartbeat IPC: 1.32303 cumulative IPC: 1.2989 (Simulation time: 2 hr 21 min 33 sec) 
Heartbeat CPU 0 instructions: 1730000003 cycles: 1072579654 heartbeat IPC: 1.30272 cumulative IPC: 1.29893 (Simulation time: 2 hr 22 min 25 sec) 
Heartbeat CPU 0 instructions: 1740000000 cycles: 1080053624 heartbeat IPC: 1.33798 cumulative IPC: 1.29924 (Simulation time: 2 hr 23 min 9 sec) 
Heartbeat CPU 0 instructions: 1750000001 cycles: 1087587607 heartbeat IPC: 1.32732 cumulative IPC: 1.29946 (Simulation time: 2 hr 23 min 55 sec) 
Heartbeat CPU 0 instructions: 1760000000 cycles: 1095240809 heartbeat IPC: 1.30664 cumulative IPC: 1.29952 (Simulation time: 2 hr 24 min 44 sec) 
Heartbeat CPU 0 instructions: 1770000002 cycles: 1102809156 heartbeat IPC: 1.32129 cumulative IPC: 1.29968 (Simulation time: 2 hr 25 min 38 sec) 
Heartbeat CPU 0 instructions: 1780000002 cycles: 1110291609 heartbeat IPC: 1.33646 cumulative IPC: 1.29996 (Simulation time: 2 hr 26 min 24 sec) 
Heartbeat CPU 0 instructions: 1790000000 cycles: 1117910281 heartbeat IPC: 1.31256 cumulative IPC: 1.30006 (Simulation time: 2 hr 27 min 1 sec) 
Heartbeat CPU 0 instructions: 1800000004 cycles: 1125577253 heartbeat IPC: 1.3043 cumulative IPC: 1.30009 (Simulation time: 2 hr 27 min 38 sec) 
Heartbeat CPU 0 instructions: 1810000000 cycles: 1133318442 heartbeat IPC: 1.29179 cumulative IPC: 1.30003 (Simulation time: 2 hr 28 min 28 sec) 
Heartbeat CPU 0 instructions: 1820000002 cycles: 1141160864 heartbeat IPC: 1.27512 cumulative IPC: 1.29984 (Simulation time: 2 hr 29 min 23 sec) 
Heartbeat CPU 0 instructions: 1830000000 cycles: 1149138814 heartbeat IPC: 1.25345 cumulative IPC: 1.29947 (Simulation time: 2 hr 30 min 19 sec) 
Heartbeat CPU 0 instructions: 1840000003 cycles: 1157469783 heartbeat IPC: 1.20034 cumulative IPC: 1.29867 (Simulation time: 2 hr 31 min 9 sec) 
Heartbeat CPU 0 instructions: 1850000001 cycles: 1165241594 heartbeat IPC: 1.2867 cumulative IPC: 1.29858 (Simulation time: 2 hr 32 min 1 sec) 
Heartbeat CPU 0 instructions: 1860000001 cycles: 1172929991 heartbeat IPC: 1.30066 cumulative IPC: 1.2986 (Simulation time: 2 hr 32 min 54 sec) 
Heartbeat CPU 0 instructions: 1870000002 cycles: 1180595912 heartbeat IPC: 1.30447 cumulative IPC: 1.29864 (Simulation time: 2 hr 33 min 46 sec) 
Heartbeat CPU 0 instructions: 1880000003 cycles: 1188190841 heartbeat IPC: 1.31667 cumulative IPC: 1.29877 (Simulation time: 2 hr 34 min 39 sec) 
Heartbeat CPU 0 instructions: 1890000000 cycles: 1195824536 heartbeat IPC: 1.30998 cumulative IPC: 1.29885 (Simulation time: 2 hr 35 min 31 sec) 
Heartbeat CPU 0 instructions: 1900000000 cycles: 1203368761 heartbeat IPC: 1.32552 cumulative IPC: 1.29904 (Simulation time: 2 hr 36 min 23 sec) 
Heartbeat CPU 0 instructions: 1910000000 cycles: 1210993295 heartbeat IPC: 1.31156 cumulative IPC: 1.29913 (Simulation time: 2 hr 37 min 16 sec) 
Heartbeat CPU 0 instructions: 1920000002 cycles: 1218558231 heartbeat IPC: 1.32189 cumulative IPC: 1.29928 (Simulation time: 2 hr 38 min 9 sec) 
Heartbeat CPU 0 instructions: 1930000002 cycles: 1226092254 heartbeat IPC: 1.32731 cumulative IPC: 1.29948 (Simulation time: 2 hr 39 min 2 sec) 
Heartbeat CPU 0 instructions: 1940000003 cycles: 1233614721 heartbeat IPC: 1.32935 cumulative IPC: 1.29968 (Simulation time: 2 hr 39 min 54 sec) 
Heartbeat CPU 0 instructions: 1950000002 cycles: 1241154419 heartbeat IPC: 1.32631 cumulative IPC: 1.29986 (Simulation time: 2 hr 40 min 47 sec) 
Heartbeat CPU 0 instructions: 1960000003 cycles: 1248721745 heartbeat IPC: 1.32147 cumulative IPC: 1.3 (Simulation time: 2 hr 41 min 40 sec) 
Heartbeat CPU 0 instructions: 1970000000 cycles: 1256241170 heartbeat IPC: 1.32989 cumulative IPC: 1.3002 (Simulation time: 2 hr 42 min 19 sec) 
Heartbeat CPU 0 instructions: 1980000000 cycles: 1263694856 heartbeat IPC: 1.34162 cumulative IPC: 1.30047 (Simulation time: 2 hr 42 min 49 sec) 
Heartbeat CPU 0 instructions: 1990000000 cycles: 1271197656 heartbeat IPC: 1.33284 cumulative IPC: 1.30069 (Simulation time: 2 hr 43 min 19 sec) 
*** Reached end of trace: traces/644.nab_s-12459B.champsimtrace.xz
Heartbeat CPU 0 instructions: 2000000002 cycles: 1278723418 heartbeat IPC: 1.32877 cumulative IPC: 1.30087 (Simulation time: 2 hr 43 min 49 sec) 
Finished CPU 0 instructions: 1500000001 cycles: 1153075032 cumulative IPC: 1.30087 (Simulation time: 2 hr 43 min 49 sec) 

ChampSim completed all CPUs

Region of Interest Statistics

CPU 0 cumulative IPC: 1.30087 instructions: 1500000001 cycles: 1153075032
cpu0_DTLB TOTAL     ACCESS:  263601356  HIT:  263050371  MISS:     550985
cpu0_DTLB LOAD      ACCESS:  196601960  HIT:  196066192  MISS:     535768
cpu0_DTLB RFO       ACCESS:   66999396  HIT:   66984179  MISS:      15217
cpu0_DTLB PREFETCH  ACCESS:          0  HIT:          0  MISS:          0
cpu0_DTLB WRITEBACK ACCESS:          0  HIT:          0  MISS:          0
cpu0_DTLB TRANSLATION ACCESS:          0  HIT:          0  MISS:          0
cpu0_DTLB PREFETCH  REQUESTED:          0  ISSUED:          0  USEFUL:          0  USELESS:          0
cpu0_DTLB AVERAGE MISS LATENCY: 10.3365 cycles
cpu0_ITLB TOTAL     ACCESS:  157511115  HIT:  157511115  MISS:          0
cpu0_ITLB LOAD      ACCESS:  157511115  HIT:  157511115  MISS:          0
cpu0_ITLB RFO       ACCESS:          0  HIT:          0  MISS:          0
cpu0_ITLB PREFETCH  ACCESS:          0  HIT:          0  MISS:          0
cpu0_ITLB WRITEBACK ACCESS:          0  HIT:          0  MISS:          0
cpu0_ITLB TRANSLATION ACCESS:          0  HIT:          0  MISS:          0
cpu0_ITLB PREFETCH  REQUESTED:          0  ISSUED:          0  USEFUL:          0  USELESS:          0
cpu0_ITLB AVERAGE MISS LATENCY: -nan cycles
cpu0_L1I TOTAL     ACCESS:        375  HIT:        372  MISS:          3
cpu0_L1I LOAD      ACCESS:        375  HIT:        372  MISS:          3
cpu0_L1I RFO       ACCESS:          0  HIT:          0  MISS:          0
cpu0_L1I PREFETCH  ACCESS:          0  HIT:          0  MISS:          0
cpu0_L1I WRITEBACK ACCESS:          0  HIT:          0  MISS:          0
cpu0_L1I TRANSLATION ACCESS:          0  HIT:          0  MISS:          0
cpu0_L1I PREFETCH  REQUESTED:          0  ISSUED:          0  USEFUL:          0  USELESS:          0
cpu0_L1I AVERAGE MISS LATENCY: 194.667 cycles
cpu0_STLB TOTAL     ACCESS:     550985  HIT:     547519  MISS:       3466
cpu0_STLB LOAD      ACCESS:     535768  HIT:     535571  MISS:        197
cpu0_STLB RFO       ACCESS:      15217  HIT:      11948  MISS:       3269
cpu0_STLB PREFETCH  ACCESS:          0  HIT:          0  MISS:          0
cpu0_STLB WRITEBACK ACCESS:          0  HIT:          0  MISS:          0
cpu0_STLB TRANSLATION ACCESS:          0  HIT:          0  MISS:          0
cpu0_STLB PREFETCH  REQUESTED:          0  ISSUED:          0  USEFUL:          0  USELESS:          0
cpu0_STLB AVERAGE MISS LATENCY: 211.812 cycles
cpu0_L1D TOTAL     ACCESS:  351378916  HIT:  340566154  MISS:   10812762
cpu0_L1D LOAD      ACCESS:  193521573  HIT:  183135162  MISS:   10386411
cpu0_L1D RFO       ACCESS:  157853889  HIT:  157429923  MISS:     423966
cpu0_L1D PREFETCH  ACCESS:          0  HIT:          0  MISS:          0
cpu0_L1D WRITEBACK ACCESS:          0  HIT:          0  MISS:          0
cpu0_L1D TRANSLATION ACCESS:       3454  HIT:       1069  MISS:       2385
cpu0_L1D PREFETCH  REQUESTED:          0  ISSUED:          0  USEFUL:          0  USELESS:          0
cpu0_L1D AVERAGE MISS LATENCY: 17.6696 cycles
cpu0_L2C TOTAL     ACCESS:   11490338  HIT:   10359230  MISS:    1131108
cpu0_L2C LOAD      ACCESS:   10386411  HIT:    9471079  MISS:     915332
cpu0_L2C RFO       ACCESS:     423963  HIT:     208788  MISS:     215175
cpu0_L2C PREFETCH  ACCESS:          0  HIT:          0  MISS:          0
cpu0_L2C WRITEBACK ACCESS:     677579  HIT:     677052  MISS:        527
cpu0_L2C TRANSLATION ACCESS:       2385  HIT:       2311  MISS:         74
cpu0_L2C PREFETCH  REQUESTED:          0  ISSUED:          0  USEFUL:          0  USELESS:          0
cpu0_L2C AVERAGE MISS LATENCY: 63.5845 cycles
LLC TOTAL     ACCESS:    1358854  HIT:    1125234  MISS:     233620
LLC LOAD      ACCESS:     915332  HIT:     891244  MISS:      24088
LLC RFO       ACCESS:     215175  HIT:       5882  MISS:     209293
LLC PREFETCH  ACCESS:          0  HIT:          0  MISS:          0
LLC WRITEBACK ACCESS:     228273  HIT:     228041  MISS:        232
LLC TRANSLATION ACCESS:         74  HIT:         67  MISS:          7
LLC PREFETCH  REQUESTED:          0  ISSUED:          0  USEFUL:          0  USELESS:          0
LLC AVERAGE MISS LATENCY: 206.227 cycles
~~~~~~~~~~Reuse Distance Profiler output~~~~~~~~~~
0	120761152	15073856
1	45226816	24493760
2	42094528	29484384
3	31208272	13695872
4	13728048	9542496
5	13629216	8272432
6	12529568	7986288
7	13791104	7643104
8	10811040	9240976
9	9589568	8565840
10	7256400	6219936
11	5684288	4812848
12	5790224	4861824
13	5461472	4621392
14	4665968	4115664
15	3915584	3510880
16	3310224	2986832
17	2972224	2584288
18	3074192	2675232
19	2532016	2079776
20	2841040	2278240
21	2812256	2203184
22	2678256	2108928
23	2533968	1975264
24	2011616	1507840
25	1815328	1363808
26	1602384	1255712
27	1431136	1160784
28	1243456	1005488
29	1343728	1114608
30	1390304	1145712
31	1332640	1130032
32	1161376	936016
33	1266640	1019328
34	1243664	1003472
35	1028752	813888
36	929632	743888
37	800592	622080
38	997456	816000
39	985360	821808
40	974912	816736
41	812176	612368
42	767040	496352
43	637232	402704
44	835584	626320
45	830656	631776
46	882960	684336
47	740896	551776
48	591968	410064
49	632976	441264
50	648112	448304
51	748848	579472
52	1007008	850464
53	987840	853072
54	764960	649168
55	682384	577216
56	622032	520080
57	678720	585344
58	747280	641968
59	860416	716128
60	774832	624528
61	650448	505696
62	583872	460880
63	567536	457856
64	1071584	782720
66	956896	608512
68	938080	627648
70	812384	495200
72	751024	391696
74	696688	315008
76	733440	391168
78	921744	598608
80	1000336	701248
82	1046288	742640
84	1132048	835968
86	1085024	805488
88	973792	682640
90	988352	670928
92	967328	651440
94	837344	557872
96	712064	493024
98	567376	363680
100	489232	310592
102	443056	274592
104	424656	273072
106	403104	254928
108	346560	211920
110	383904	235024
112	381392	240560
114	384064	257296
116	358704	232032
118	312400	200752
120	303360	211504
122	318000	239696
124	303856	228128
126	267296	186432
128	463248	284208
132	399952	226064
136	417584	236240
140	420864	221872
144	394032	170720
148	342288	130752
152	361344	141696
156	388384	158448
160	420176	209200
164	390032	207936
168	369840	226176
172	358576	257488
176	359200	277760
180	304672	237024
184	300192	233024
188	280304	218448
192	282080	226848
196	283744	232816
200	347712	296704
204	297680	254432
208	264928	234096
212	223904	197856
216	199152	175056
220	168848	136416
224	159296	123248
228	163392	136976
232	177456	140016
236	202480	164704
240	191280	159968
244	195968	175904
248	181232	156624
252	148048	123376
256	289392	243168
264	257904	201888
272	221744	171728
280	216224	166256
288	219280	172448
296	217904	166272
304	233504	164192
312	239888	176272
320	248048	185696
328	237888	177920
336	244512	176832
344	255040	178432
352	252336	166400
360	270496	176016
368	317456	217824
376	299184	202944
384	232608	177632
392	165680	134352
400	133520	118064
408	128432	116416
416	109584	99344
424	105456	96928
432	102400	93120
440	98064	88864
448	86480	78000
456	84176	77072
464	79488	73536
472	88288	81328
480	106000	98336
488	88624	78640
496	102240	89664
504	128384	106928
512	224672	180000
528	175120	142656
544	170096	135568
560	164064	135536
576	151056	128976
592	134368	114496
608	132592	109360
624	134800	106992
640	132512	100992
656	136784	105632
672	131984	102320
688	136448	106352
704	133376	101696
720	134176	99808
736	154944	102064
752	172272	114608
768	157152	116576
784	134896	112416
800	106160	98064
816	101376	95552
832	71312	65584
848	61184	56928
864	51632	47664
880	52896	48608
896	42848	39232
912	42896	39296
928	41744	38016
944	44176	40640
960	50576	46064
976	92528	86400
992	77088	69936
1008	74496	62928
1024	135152	111856
1056	108064	84512
1088	88928	73632
1120	80864	69200
1152	79168	69072
1184	81616	69696
1216	76176	64240
1248	75216	61600
1280	71872	58704
1312	73392	60608
1344	67648	55712
1376	70544	57264
1408	72992	58000
1440	73120	56752
1472	74128	58400
1504	79856	57392
1536	83344	63328
1568	101872	87712
1600	65200	56240
1632	54336	48960
1664	39392	34896
1696	30576	27504
1728	30400	26560
1760	25712	22144
1792	29152	25376
1824	26640	23568
1856	25008	21168
1888	26192	22128
1920	21984	18560
1952	23136	19440
1984	21472	18208
2016	27488	23248
2048	58816	48816
2112	48880	40464
2176	43856	35936
2240	38864	33056
2304	37920	32208
2368	38080	32432
2432	36608	31344
2496	39792	33728
2560	36816	30080
2624	38416	30688
2688	33856	27312
2752	34816	27184
2816	34752	27904
2880	35568	28848
2944	32832	26080
3008	34560	27056
3072	38672	28736
3136	41232	29920
3200	29568	23648
3264	25904	21488
3328	21216	18592
3392	20624	17680
3456	19856	17120
3520	19424	16816
3584	19808	16720
3648	19232	16352
3712	18864	15232
3776	18128	15264
3840	18352	15472
3904	18912	15632
3968	16576	14352
4032	17632	15376
4096	34992	28880
4224	31488	27232
4352	31552	26992
4480	29472	25136
4608	27680	24320
4736	26528	22928
4864	26336	23728
4992	27232	23904
5120	26672	23376
5248	25168	22080
5376	26192	23296
5504	26112	23520
5632	26960	24224
5760	25584	22592
5888	25328	21840
6016	22176	18272
6144	22544	18992
6272	21600	17824
6400	16992	14672
6528	14880	12592
6656	13184	11856
6784	14000	12320
6912	13536	11712
7040	13008	11552
7168	12192	11024
7296	12880	11568
7424	13232	11744
7552	12912	11520
7680	12720	11344
7808	12400	11040
7936	11696	10400
8064	12576	11280
8192	23456	20624
8448	22896	19584
8704	21712	19104
8960	20352	17952
9216	20656	18016
9472	19312	17024
9728	19824	17616
9984	21216	19296
10240	21024	18992
10496	20144	18096
10752	20064	18176
11008	19728	17712
11264	20256	18224
11520	18000	16192
11776	16832	15248
12032	15968	14032
12288	14720	12976
12544	13600	12128
12800	11728	10576
13056	11680	10496
13312	10912	9776
13568	10368	9056
13824	9776	8656
14080	9056	7760
14336	10096	8816
14592	9392	8064
14848	8704	7248
15104	8480	7008
15360	7936	6704
15616	9024	7424
15872	8528	7184
16128	8448	6880
16384	16480	13664
16896	15824	12816
17408	15952	12768
17920	15504	12224
18432	15760	12704
18944	14864	12032
19456	16048	12800
19968	14736	11920
20480	14368	11360
20992	14720	11616
21504	13824	10992
22016	14512	11600
22528	12864	10464
23040	13792	10736
23552	13840	10736
24064	13296	10176
24576	12592	9408
25088	11984	8752
25600	11984	9136
26112	12032	8832
26624	11744	8576
27136	12480	9136
27648	11328	7920
28160	12160	9360
28672	12144	8768
29184	11776	8320
29696	11712	8496
30208	11840	7872
30720	11776	8576
31232	11536	8112
31744	11216	7968
32256	10656	7568
32768	22256	15280
33792	21728	14736
34816	21392	14432
35840	21216	14928
36864	20800	14736
37888	19408	13808
38912	20576	14352
39936	19808	13632
40960	18544	12944
41984	18032	12560
43008	16336	11344
44032	17168	11312
45056	16368	10656
46080	16144	9808
47104	14816	8864
48128	13408	8224
49152	13584	7776
50176	12656	7152
51200	13216	7424
52224	12320	6960
53248	11712	6784
54272	11232	6288
55296	12048	6448
56320	12304	6944
57344	11648	6816
58368	10960	6912
59392	10656	6160
60416	10544	5856
61440	10016	5664
62464	10144	5776
63488	9968	6048
64512	10064	6048
65536	24288	16608
67584	27888	20800
69632	34304	28096
71680	32832	26848
73728	38208	32160
75776	40112	35440
77824	49664	45216
79872	53584	48784
81920	48368	43984
83968	47136	43152
86016	52272	48800
88064	66848	63664
90112	72672	69616
92160	85584	82768
94208	102224	99424
96256	101472	98544
98304	100944	98096
100352	125104	122304
102400	121360	119312
104448	130176	127920
106496	134752	132720
108544	106656	104496
110592	112816	110736
112640	133904	132224
114688	139504	137984
116736	145264	143856
118784	182880	181632
120832	182528	181328
122880	187568	186336
124928	210448	209456
126976	187840	186368
129024	196208	195216
131072	358560	356688
135168	365664	364336
139264	464128	462976
143360	466480	465504
147456	435280	434544
151552	411360	410752
155648	464928	464272
159744	449008	448336
163840	392400	391696
167936	399440	398960
172032	412800	412112
176128	461344	460816
180224	463664	463072
184320	373920	373472
188416	379680	379248
192512	406672	406192
196608	347584	347104
200704	352928	352480
204800	358928	358496
208896	348544	348240
212992	352928	352672
217088	301232	300912
221184	286560	286272
225280	183008	182784
229376	149824	149552
233472	123104	122928
237568	57328	57248
241664	20800	20736
245760	13040	12928
249856	2736	2688
253952	2832	2720
258048	2864	2800
262144	4768	4688
270336	4320	4128
278528	6752	6560
286720	5360	5232
294912	5392	5296
303104	5984	5856
311296	6544	6368
319488	7984	7792
327680	5520	5456
335872	6880	6800
344064	7008	6832
352256	7328	7248
360448	6960	6848
368640	5248	5168
376832	5664	5552
385024	6240	6192
393216	5904	5856
401408	4672	4608
409600	4992	4896
417792	5744	5744
425984	5728	5680
434176	5824	5792
442368	4976	4960
450560	4000	3968
458752	3216	3184
466944	3392	3376
475136	2592	2576
483328	1600	1600
491520	2256	2192
499712	1360	1312
507904	1872	1856
516096	2288	2272
524288	3664	3616
540672	4320	4176
557056	3792	3728
573440	4176	4064
589824	3632	3568
606208	5344	5248
622592	3408	3408
638976	3808	3760
655360	4496	4400
671744	2144	2064
688128	3808	3744
704512	3312	3280
720896	3248	3184
737280	3136	3104
753664	1856	1792
770048	2640	2624
786432	3120	3088
802816	2208	2128
819200	2720	2656
835584	2576	2560
851968	3728	3680
868352	3136	3104
884736	2400	2352
901120	1984	1952
917504	1824	1808
933888	1232	1184
950272	720	688
966656	1792	1792
983040	2000	1952
999424	1376	1296
1015808	2624	2576
1032192	1712	1680
1048576	3584	3504
1081344	2320	2256
1114112	2976	2928
1146880	2176	2096
1179648	2496	2464
1212416	1536	1472
1245184	2688	2672
1277952	1232	1232
1310720	1920	1920
1343488	1760	1728
1376256	2080	2048
1409024	1952	1920
1441792	2240	2192
1474560	1696	1648
1507328	1904	1856
1540096	2336	2336
1572864	1248	1200
1605632	1136	1040
1638400	2016	2000
1671168	1440	1376
1703936	832	784
1736704	2080	2080
1769472	1984	1984
1802240	1744	1664
1835008	1440	1408
1867776	1248	1184
1900544	1280	1264
1933312	864	864
1966080	992	992
1998848	1024	1024
2031616	1120	1104
2064384	1360	1344
2097152	1440	1376
2162688	1280	1248
2228224	1504	1456
2293760	2416	2368
2359296	1968	1936
2424832	2016	1984
2490368	1440	1424
2555904	1920	1888
2621440	720	704
2686976	832	800
2752512	1312	1248
2818048	1744	1744
2883584	2288	2256
2949120	1840	1840
3014656	2032	2000
3080192	1280	1280
3145728	768	752
3211264	768	768
3276800	592	592
3342336	688	688
3407872	1152	1152
3473408	816	816
3538944	864	848
3604480	496	416
3670016	608	592
3735552	768	720
3801088	288	272
3866624	1328	1296
3932160	480	480
3997696	1008	992
4063232	304	288
4128768	736	736
4194304	1472	1424
4325376	1568	1536
4456448	1152	1104
4587520	832	800
4718592	592	576
4849664	1376	1344
4980736	1520	1504
5111808	1184	1152
5242880	912	880
5373952	1200	1200
5505024	1008	992
5636096	592	560
5767168	960	944
5898240	544	528
6029312	800	768
6160384	512	512
6291456	880	864
6422528	992	960
6553600	1232	1232
6684672	736	720
6815744	480	480
6946816	512	464
7077888	704	656
7208960	816	768
7340032	704	688
7471104	512	480
7602176	384	384
7733248	640	624
7864320	448	448
7995392	736	736
8126464	224	224
8257536	800	768
8388608	464	464
8650752	976	960
8912896	1376	1360
9175040	608	592
9437184	480	464
9699328	560	560
9961472	256	256
10223616	480	464
10485760	304	304
10747904	352	352
11010048	384	352
11272192	80	80
11534336	144	144
11796480	192	160
12058624	176	176
12320768	160	160
12582912	320	320
12845056	272	272
13107200	112	80
13369344	1008	992
13631488	224	176
13893632	80	64
14155776	128	112
14417920	80	80
14680064	208	192
14942208	144	144
15204352	336	336
15466496	128	128
15728640	368	368
15990784	192	192
16252928	304	304
16515072	0	0
16777216	160	160
17301504	112	112
17825792	496	464
18350080	304	304
18874368	448	448
19398656	448	448
19922944	432	432
20447232	224	208
20971520	416	416
21495808	144	144
22020096	208	192
22544384	448	448
23068672	144	144
23592960	144	144
24117248	560	560
24641536	368	368
25165824	208	192
25690112	400	400
26214400	192	192
26738688	240	224
27262976	160	160
27787264	496	448
28311552	96	96
28835840	112	112
29360128	48	48
29884416	304	304
30408704	80	80
30932992	96	96
31457280	144	144
31981568	400	400
32505856	144	128
33030144	16	16
33554432	336	336
34603008	96	96
35651584	528	528
36700160	144	144
37748736	176	160
38797312	448	448
39845888	240	240
40894464	256	256
41943040	272	272
42991616	64	64
44040192	32	32
45088768	0	0
46137344	192	176
47185920	272	272
48234496	112	64
49283072	336	336
50331648	304	304
51380224	80	80
52428800	192	192
53477376	224	224
54525952	96	96
55574528	48	48
56623104	240	240
57671680	160	160
58720256	208	208
59768832	384	384
60817408	144	128
61865984	128	128
62914560	592	592
63963136	208	208
65011712	192	192
66060288	144	144
67108864	160	144
69206016	112	112
71303168	32	32
73400320	64	64
75497472	64	64
77594624	96	96
79691776	224	224
81788928	64	64
83886080	16	16
85983232	144	128
88080384	144	144
90177536	16	16
92274688	32	32
94371840	32	32
96468992	0	0
98566144	128	128
100663296	0	0
102760448	160	160
104857600	80	80
106954752	16	16
109051904	64	64
111149056	64	64
113246208	80	80
115343360	80	80
117440512	128	128
119537664	80	80
121634816	16	16
123731968	32	32
125829120	272	272
127926272	192	192
130023424	0	0
132120576	64	64
134217728	32	32
138412032	112	112
142606336	0	0
146800640	32	32
150994944	64	64
155189248	0	0
159383552	64	64
163577856	16	16
167772160	64	64
171966464	0	0
176160768	0	0
180355072	16	16
184549376	176	176
188743680	0	0
192937984	0	0
197132288	0	0
201326592	144	144
205520896	48	48
209715200	16	16
213909504	48	48
218103808	32	32
222298112	48	48
226492416	0	0
230686720	0	0
234881024	0	0
239075328	0	0
243269632	0	0
247463936	0	0
251658240	48	48
255852544	48	48
260046848	192	192
264241152	0	0
268435456	80	80
276824064	0	0
285212672	0	0
293601280	0	0
301989888	48	48
310378496	0	0
318767104	48	48
327155712	128	128
335544320	688	672
343932928	256	256
352321536	112	112
360710144	64	64
369098752	16	16
377487360	0	0
385875968	0	0
394264576	0	0
402653184	0	0
411041792	0	0
419430400	0	0
427819008	0	0
436207616	16	16
444596224	0	0
452984832	0	0
461373440	0	0
469762048	0	0
478150656	0	0
486539264	0	0
494927872	0	0
503316480	0	0
511705088	0	0
520093696	0	0
528482304	0	0
536870912	0	0
553648128	0	0
570425344	0	0
587202560	0	0
603979776	0	0
620756992	0	0
637534208	0	0
654311424	0	0
671088640	0	0
687865856	0	0
704643072	0	0
721420288	0	0
738197504	0	0
754974720	0	0
771751936	0	0
788529152	0	0
805306368	0	0
822083584	0	0
838860800	0	0
855638016	0	0
872415232	0	0
889192448	0	0
905969664	0	0
922746880	0	0
939524096	0	0
956301312	0	0
973078528	0	0
989855744	0	0
1006632960	0	0
1023410176	0	0
1040187392	0	0
1056964608	0	0
1073741824	0	0
1107296256	0	0
1140850688	0	0
1174405120	0	0
1207959552	0	0
1241513984	0	0
1275068416	0	0
1308622848	0	0
1342177280	0	0
1375731712	0	0
1409286144	0	0
1442840576	0	0
1476395008	0	0
1509949440	0	0
1543503872	0	0
1577058304	0	0
1610612736	0	0
1644167168	0	0
1677721600	0	0
1711276032	0	0
1744830464	0	0
1778384896	0	0
1811939328	0	0
1845493760	0	0
1879048192	0	0
1912602624	0	0
1946157056	0	0
1979711488	0	0
2013265920	0	0
2046820352	0	0
2080374784	0	0
2113929216	0	0
2147483648	0	0
2214592512	0	0
2281701376	0	0
2348810240	0	0
2415919104	0	0
2483027968	0	0
2550136832	0	0
2617245696	0	0
2684354560	0	0
2751463424	0	0
2818572288	0	0
2885681152	0	0
2952790016	0	0
3019898880	0	0
3087007744	0	0
3154116608	0	0
3221225472	0	0
3288334336	0	0
3355443200	0	0
3422552064	0	0
3489660928	0	0
3556769792	0	0
3623878656	0	0
3690987520	0	0
3758096384	0	0
3825205248	0	0
3892314112	0	0
3959422976	0	0
4026531840	0	0
4093640704	0	0
4160749568	0	0
4227858432	0	0
~~~~~~~~~~Reuse Distance Profiler output end~~~~~~~~~~

DRAM Statistics
 CHANNEL 0
 RQ ROW_BUFFER_HIT:     116544  ROW_BUFFER_MISS:     116844
 DBUS AVG_CONGESTED_CYCLE:    3.94551
 WQ ROW_BUFFER_HIT:      31552  ROW_BUFFER_MISS:     177072  FULL:          0


CPU 0 Branch Prediction Accuracy: 89.2704% MPKI: 14.8609 Average ROB Occupancy at Mispredict: 44.392
Branch type MPKI
BRANCH_DIRECT_JUMP: 1.33333e-06
BRANCH_INDIRECT: 0
BRANCH_CONDITIONAL: 14.8609
BRANCH_DIRECT_CALL: 0
BRANCH_INDIRECT_CALL: 0
BRANCH_RETURN: 0

