
*** ChampSim Multicore Out-of-Order Simulator ***

Warmup Instructions: 500000000
Simulation Instructions: 1500000000
Number of CPUs: 1
Off-chip DRAM Size: 4 GiB Channels: 1 Width: 64-bit Data Rate: 3200 MT/s

VirtualMemory physical capacity: 8588881920 num_ppages: 2096895
VirtualMemory page size: 4096 log2_page_size: 12

CPU 0 runs traces/644.nab_s-9322B.champsimtrace.xz
CPU 0 Bimodal branch predictor
Basic BTB sets: 1024 ways: 8 indirect buffer size: 4096 RAS size: 64
Initializing LRU.
Initializing LRU.
Initializing LRU.
Initializing LRU.
Initializing rdLRU.
Initializing LRU.
Initializing LRU.
Heartbeat CPU 0 instructions: 10000001 cycles: 2905725 heartbeat IPC: 3.44148 cumulative IPC: 3.44148 (Simulation time: 0 hr 1 min 3 sec) 
Heartbeat CPU 0 instructions: 20000001 cycles: 5809119 heartbeat IPC: 3.44424 cumulative IPC: 3.44286 (Simulation time: 0 hr 2 min 8 sec) 
Heartbeat CPU 0 instructions: 30000004 cycles: 8708800 heartbeat IPC: 3.44866 cumulative IPC: 3.44479 (Simulation time: 0 hr 3 min 10 sec) 
Heartbeat CPU 0 instructions: 40000003 cycles: 11607423 heartbeat IPC: 3.44991 cumulative IPC: 3.44607 (Simulation time: 0 hr 4 min 21 sec) 
Heartbeat CPU 0 instructions: 50000000 cycles: 14510226 heartbeat IPC: 3.44495 cumulative IPC: 3.44585 (Simulation time: 0 hr 5 min 20 sec) 
Heartbeat CPU 0 instructions: 60000004 cycles: 17417490 heartbeat IPC: 3.43966 cumulative IPC: 3.44481 (Simulation time: 0 hr 6 min 19 sec) 
Heartbeat CPU 0 instructions: 70000002 cycles: 20343071 heartbeat IPC: 3.41812 cumulative IPC: 3.44098 (Simulation time: 0 hr 7 min 24 sec) 
Heartbeat CPU 0 instructions: 80000003 cycles: 23274877 heartbeat IPC: 3.41087 cumulative IPC: 3.43718 (Simulation time: 0 hr 8 min 41 sec) 
Heartbeat CPU 0 instructions: 90000002 cycles: 26193300 heartbeat IPC: 3.42651 cumulative IPC: 3.43599 (Simulation time: 0 hr 9 min 45 sec) 
Heartbeat CPU 0 instructions: 100000001 cycles: 29109688 heartbeat IPC: 3.4289 cumulative IPC: 3.43528 (Simulation time: 0 hr 10 min 56 sec) 
Heartbeat CPU 0 instructions: 110000001 cycles: 32031607 heartbeat IPC: 3.42241 cumulative IPC: 3.43411 (Simulation time: 0 hr 12 min 8 sec) 
Heartbeat CPU 0 instructions: 120000002 cycles: 34947906 heartbeat IPC: 3.429 cumulative IPC: 3.43368 (Simulation time: 0 hr 13 min 14 sec) 
Heartbeat CPU 0 instructions: 130000000 cycles: 37875755 heartbeat IPC: 3.41548 cumulative IPC: 3.43227 (Simulation time: 0 hr 14 min 22 sec) 
Heartbeat CPU 0 instructions: 140000003 cycles: 40807740 heartbeat IPC: 3.41066 cumulative IPC: 3.43072 (Simulation time: 0 hr 15 min 24 sec) 
Heartbeat CPU 0 instructions: 150000001 cycles: 43717876 heartbeat IPC: 3.43626 cumulative IPC: 3.43109 (Simulation time: 0 hr 16 min 21 sec) 
Heartbeat CPU 0 instructions: 160000001 cycles: 46621024 heartbeat IPC: 3.44454 cumulative IPC: 3.43193 (Simulation time: 0 hr 17 min 30 sec) 
Heartbeat CPU 0 instructions: 170000004 cycles: 49539872 heartbeat IPC: 3.42601 cumulative IPC: 3.43158 (Simulation time: 0 hr 18 min 38 sec) 
Heartbeat CPU 0 instructions: 180000001 cycles: 52451016 heartbeat IPC: 3.43507 cumulative IPC: 3.43177 (Simulation time: 0 hr 19 min 42 sec) 
Heartbeat CPU 0 instructions: 190000001 cycles: 55370502 heartbeat IPC: 3.42526 cumulative IPC: 3.43143 (Simulation time: 0 hr 20 min 47 sec) 
Heartbeat CPU 0 instructions: 200000000 cycles: 58281785 heartbeat IPC: 3.43491 cumulative IPC: 3.4316 (Simulation time: 0 hr 22 min 2 sec) 
Heartbeat CPU 0 instructions: 210000004 cycles: 61205556 heartbeat IPC: 3.42024 cumulative IPC: 3.43106 (Simulation time: 0 hr 23 min 20 sec) 
Heartbeat CPU 0 instructions: 220000004 cycles: 64131110 heartbeat IPC: 3.41816 cumulative IPC: 3.43047 (Simulation time: 0 hr 24 min 24 sec) 
Heartbeat CPU 0 instructions: 230000004 cycles: 67068738 heartbeat IPC: 3.40411 cumulative IPC: 3.42932 (Simulation time: 0 hr 25 min 25 sec) 
Heartbeat CPU 0 instructions: 240000003 cycles: 70017124 heartbeat IPC: 3.39169 cumulative IPC: 3.42773 (Simulation time: 0 hr 26 min 10 sec) 
Heartbeat CPU 0 instructions: 250000002 cycles: 72936906 heartbeat IPC: 3.42491 cumulative IPC: 3.42762 (Simulation time: 0 hr 27 min 12 sec) 
Heartbeat CPU 0 instructions: 260000002 cycles: 75840326 heartbeat IPC: 3.44421 cumulative IPC: 3.42826 (Simulation time: 0 hr 27 min 58 sec) 
Heartbeat CPU 0 instructions: 270000001 cycles: 78762860 heartbeat IPC: 3.42169 cumulative IPC: 3.42801 (Simulation time: 0 hr 29 min 8 sec) 
Heartbeat CPU 0 instructions: 280000000 cycles: 81678131 heartbeat IPC: 3.43021 cumulative IPC: 3.42809 (Simulation time: 0 hr 29 min 56 sec) 
Heartbeat CPU 0 instructions: 290000000 cycles: 84592822 heartbeat IPC: 3.4309 cumulative IPC: 3.42819 (Simulation time: 0 hr 31 min 1 sec) 
Heartbeat CPU 0 instructions: 300000000 cycles: 87500601 heartbeat IPC: 3.43905 cumulative IPC: 3.42855 (Simulation time: 0 hr 32 min 16 sec) 
Heartbeat CPU 0 instructions: 310000001 cycles: 90404479 heartbeat IPC: 3.44367 cumulative IPC: 3.42903 (Simulation time: 0 hr 33 min 26 sec) 
Heartbeat CPU 0 instructions: 320000002 cycles: 93309399 heartbeat IPC: 3.44244 cumulative IPC: 3.42945 (Simulation time: 0 hr 34 min 23 sec) 
Heartbeat CPU 0 instructions: 330000004 cycles: 96230628 heartbeat IPC: 3.42322 cumulative IPC: 3.42926 (Simulation time: 0 hr 35 min 32 sec) 
Heartbeat CPU 0 instructions: 340000000 cycles: 99141321 heartbeat IPC: 3.43561 cumulative IPC: 3.42945 (Simulation time: 0 hr 36 min 45 sec) 
Heartbeat CPU 0 instructions: 350000004 cycles: 102060100 heartbeat IPC: 3.42609 cumulative IPC: 3.42935 (Simulation time: 0 hr 37 min 49 sec) 
Heartbeat CPU 0 instructions: 360000002 cycles: 104979461 heartbeat IPC: 3.42541 cumulative IPC: 3.42924 (Simulation time: 0 hr 38 min 51 sec) 
Heartbeat CPU 0 instructions: 370000000 cycles: 107876994 heartbeat IPC: 3.45121 cumulative IPC: 3.42983 (Simulation time: 0 hr 39 min 45 sec) 
Heartbeat CPU 0 instructions: 380000000 cycles: 110785281 heartbeat IPC: 3.43845 cumulative IPC: 3.43006 (Simulation time: 0 hr 40 min 55 sec) 
Heartbeat CPU 0 instructions: 390000004 cycles: 113695306 heartbeat IPC: 3.4364 cumulative IPC: 3.43022 (Simulation time: 0 hr 42 min 5 sec) 
Heartbeat CPU 0 instructions: 400000001 cycles: 116613589 heartbeat IPC: 3.42667 cumulative IPC: 3.43013 (Simulation time: 0 hr 43 min 21 sec) 
Heartbeat CPU 0 instructions: 410000002 cycles: 119523920 heartbeat IPC: 3.43604 cumulative IPC: 3.43028 (Simulation time: 0 hr 44 min 33 sec) 
Heartbeat CPU 0 instructions: 420000002 cycles: 122415286 heartbeat IPC: 3.45857 cumulative IPC: 3.43094 (Simulation time: 0 hr 45 min 40 sec) 
Heartbeat CPU 0 instructions: 430000001 cycles: 125309741 heartbeat IPC: 3.45488 cumulative IPC: 3.4315 (Simulation time: 0 hr 46 min 52 sec) 
Heartbeat CPU 0 instructions: 440000002 cycles: 128213304 heartbeat IPC: 3.44404 cumulative IPC: 3.43178 (Simulation time: 0 hr 48 min 6 sec) 
Heartbeat CPU 0 instructions: 450000001 cycles: 131148193 heartbeat IPC: 3.40728 cumulative IPC: 3.43123 (Simulation time: 0 hr 49 min 21 sec) 
Heartbeat CPU 0 instructions: 460000000 cycles: 134072465 heartbeat IPC: 3.41965 cumulative IPC: 3.43098 (Simulation time: 0 hr 50 min 17 sec) 
Heartbeat CPU 0 instructions: 470000004 cycles: 136982257 heartbeat IPC: 3.43667 cumulative IPC: 3.4311 (Simulation time: 0 hr 51 min 26 sec) 
Heartbeat CPU 0 instructions: 480000004 cycles: 139901080 heartbeat IPC: 3.42604 cumulative IPC: 3.431 (Simulation time: 0 hr 52 min 33 sec) 
Heartbeat CPU 0 instructions: 490000003 cycles: 142810128 heartbeat IPC: 3.43755 cumulative IPC: 3.43113 (Simulation time: 0 hr 53 min 35 sec) 
Heartbeat CPU 0 instructions: 500000000 cycles: 145730741 heartbeat IPC: 3.42394 cumulative IPC: 3.43099 (Simulation time: 0 hr 54 min 50 sec) 

Warmup complete CPU 0 instructions: 500000004 cycles: 145730742 (Simulation time: 0 hr 54 min 50 sec) 

Heartbeat CPU 0 instructions: 510000002 cycles: 153608797 heartbeat IPC: 1.26935 cumulative IPC: 1.26935 (Simulation time: 0 hr 56 min 11 sec) 
Heartbeat CPU 0 instructions: 520000000 cycles: 161478328 heartbeat IPC: 1.27072 cumulative IPC: 1.27004 (Simulation time: 0 hr 57 min 27 sec) 
Heartbeat CPU 0 instructions: 530000000 cycles: 169372467 heartbeat IPC: 1.26676 cumulative IPC: 1.26894 (Simulation time: 0 hr 59 min 8 sec) 
Heartbeat CPU 0 instructions: 540000003 cycles: 177339118 heartbeat IPC: 1.25523 cumulative IPC: 1.26549 (Simulation time: 1 hr 0 min 25 sec) 
Heartbeat CPU 0 instructions: 550000000 cycles: 185210146 heartbeat IPC: 1.27048 cumulative IPC: 1.26648 (Simulation time: 1 hr 1 min 47 sec) 
Heartbeat CPU 0 instructions: 560000003 cycles: 193066192 heartbeat IPC: 1.27291 cumulative IPC: 1.26755 (Simulation time: 1 hr 2 min 56 sec) 
Heartbeat CPU 0 instructions: 570000000 cycles: 200911785 heartbeat IPC: 1.2746 cumulative IPC: 1.26855 (Simulation time: 1 hr 4 min 17 sec) 
Heartbeat CPU 0 instructions: 580000000 cycles: 208733007 heartbeat IPC: 1.27857 cumulative IPC: 1.2698 (Simulation time: 1 hr 5 min 54 sec) 
Heartbeat CPU 0 instructions: 590000003 cycles: 216611606 heartbeat IPC: 1.26926 cumulative IPC: 1.26974 (Simulation time: 1 hr 7 min 1 sec) 
Heartbeat CPU 0 instructions: 600000003 cycles: 224438632 heartbeat IPC: 1.27762 cumulative IPC: 1.27052 (Simulation time: 1 hr 8 min 5 sec) 
Heartbeat CPU 0 instructions: 610000000 cycles: 232202653 heartbeat IPC: 1.28799 cumulative IPC: 1.27209 (Simulation time: 1 hr 9 min 48 sec) 
Heartbeat CPU 0 instructions: 620000000 cycles: 240050805 heartbeat IPC: 1.27419 cumulative IPC: 1.27226 (Simulation time: 1 hr 11 min 28 sec) 
Heartbeat CPU 0 instructions: 630000003 cycles: 247865557 heartbeat IPC: 1.27963 cumulative IPC: 1.27283 (Simulation time: 1 hr 12 min 59 sec) 
Heartbeat CPU 0 instructions: 640000000 cycles: 255721312 heartbeat IPC: 1.27295 cumulative IPC: 1.27284 (Simulation time: 1 hr 14 min 6 sec) 
Heartbeat CPU 0 instructions: 650000001 cycles: 263562809 heartbeat IPC: 1.27527 cumulative IPC: 1.273 (Simulation time: 1 hr 15 min 25 sec) 
Heartbeat CPU 0 instructions: 660000001 cycles: 271427396 heartbeat IPC: 1.27152 cumulative IPC: 1.27291 (Simulation time: 1 hr 16 min 59 sec) 
Heartbeat CPU 0 instructions: 670000000 cycles: 279285556 heartbeat IPC: 1.27256 cumulative IPC: 1.27289 (Simulation time: 1 hr 18 min 44 sec) 
Heartbeat CPU 0 instructions: 680000001 cycles: 287197630 heartbeat IPC: 1.26389 cumulative IPC: 1.27238 (Simulation time: 1 hr 19 min 55 sec) 
Heartbeat CPU 0 instructions: 690000001 cycles: 295039928 heartbeat IPC: 1.27514 cumulative IPC: 1.27253 (Simulation time: 1 hr 21 min 17 sec) 
Heartbeat CPU 0 instructions: 700000000 cycles: 302921756 heartbeat IPC: 1.26874 cumulative IPC: 1.27234 (Simulation time: 1 hr 22 min 51 sec) 
Heartbeat CPU 0 instructions: 710000000 cycles: 310796190 heartbeat IPC: 1.26993 cumulative IPC: 1.27222 (Simulation time: 1 hr 24 min 34 sec) 
Heartbeat CPU 0 instructions: 720000001 cycles: 318697856 heartbeat IPC: 1.26556 cumulative IPC: 1.27192 (Simulation time: 1 hr 25 min 57 sec) 
Heartbeat CPU 0 instructions: 730000003 cycles: 326522753 heartbeat IPC: 1.27797 cumulative IPC: 1.27218 (Simulation time: 1 hr 27 min 14 sec) 
Heartbeat CPU 0 instructions: 740000001 cycles: 334360339 heartbeat IPC: 1.2759 cumulative IPC: 1.27233 (Simulation time: 1 hr 28 min 59 sec) 
Heartbeat CPU 0 instructions: 750000000 cycles: 342175357 heartbeat IPC: 1.27959 cumulative IPC: 1.27262 (Simulation time: 1 hr 30 min 33 sec) 
Heartbeat CPU 0 instructions: 760000000 cycles: 350003926 heartbeat IPC: 1.27737 cumulative IPC: 1.27281 (Simulation time: 1 hr 32 min 6 sec) 
Heartbeat CPU 0 instructions: 770000000 cycles: 357864595 heartbeat IPC: 1.27216 cumulative IPC: 1.27278 (Simulation time: 1 hr 33 min 36 sec) 
Heartbeat CPU 0 instructions: 780000002 cycles: 365729702 heartbeat IPC: 1.27144 cumulative IPC: 1.27273 (Simulation time: 1 hr 35 min 5 sec) 
Heartbeat CPU 0 instructions: 790000000 cycles: 373584624 heartbeat IPC: 1.27309 cumulative IPC: 1.27275 (Simulation time: 1 hr 36 min 33 sec) 
Heartbeat CPU 0 instructions: 800000002 cycles: 381398800 heartbeat IPC: 1.27973 cumulative IPC: 1.27298 (Simulation time: 1 hr 38 min 0 sec) 
Heartbeat CPU 0 instructions: 810000002 cycles: 389216455 heartbeat IPC: 1.27916 cumulative IPC: 1.27318 (Simulation time: 1 hr 39 min 32 sec) 
Heartbeat CPU 0 instructions: 820000004 cycles: 397060275 heartbeat IPC: 1.27489 cumulative IPC: 1.27323 (Simulation time: 1 hr 40 min 50 sec) 
Heartbeat CPU 0 instructions: 830000003 cycles: 404905625 heartbeat IPC: 1.27464 cumulative IPC: 1.27327 (Simulation time: 1 hr 42 min 20 sec) 
Heartbeat CPU 0 instructions: 840000003 cycles: 412785957 heartbeat IPC: 1.26898 cumulative IPC: 1.27314 (Simulation time: 1 hr 43 min 49 sec) 
Heartbeat CPU 0 instructions: 850000000 cycles: 420670623 heartbeat IPC: 1.26828 cumulative IPC: 1.27301 (Simulation time: 1 hr 45 min 21 sec) 
Heartbeat CPU 0 instructions: 860000004 cycles: 428543775 heartbeat IPC: 1.27014 cumulative IPC: 1.27293 (Simulation time: 1 hr 47 min 0 sec) 
Heartbeat CPU 0 instructions: 870000000 cycles: 436479581 heartbeat IPC: 1.26011 cumulative IPC: 1.27258 (Simulation time: 1 hr 48 min 19 sec) 
Heartbeat CPU 0 instructions: 880000000 cycles: 444342806 heartbeat IPC: 1.27174 cumulative IPC: 1.27255 (Simulation time: 1 hr 49 min 59 sec) 
Heartbeat CPU 0 instructions: 890000004 cycles: 452177047 heartbeat IPC: 1.27645 cumulative IPC: 1.27265 (Simulation time: 1 hr 51 min 42 sec) 
Heartbeat CPU 0 instructions: 900000004 cycles: 460027433 heartbeat IPC: 1.27382 cumulative IPC: 1.27268 (Simulation time: 1 hr 53 min 1 sec) 
Heartbeat CPU 0 instructions: 910000002 cycles: 467894392 heartbeat IPC: 1.27114 cumulative IPC: 1.27265 (Simulation time: 1 hr 54 min 12 sec) 
Heartbeat CPU 0 instructions: 920000000 cycles: 475661755 heartbeat IPC: 1.28744 cumulative IPC: 1.27299 (Simulation time: 1 hr 55 min 17 sec) 
Heartbeat CPU 0 instructions: 930000004 cycles: 483422700 heartbeat IPC: 1.2885 cumulative IPC: 1.27335 (Simulation time: 1 hr 56 min 55 sec) 
Heartbeat CPU 0 instructions: 940000004 cycles: 491186202 heartbeat IPC: 1.28808 cumulative IPC: 1.27368 (Simulation time: 1 hr 58 min 38 sec) 
Heartbeat CPU 0 instructions: 950000002 cycles: 498909011 heartbeat IPC: 1.29487 cumulative IPC: 1.27414 (Simulation time: 2 hr 0 min 13 sec) 
Heartbeat CPU 0 instructions: 960000001 cycles: 506679839 heartbeat IPC: 1.28686 cumulative IPC: 1.27442 (Simulation time: 2 hr 1 min 50 sec) 
Heartbeat CPU 0 instructions: 970000003 cycles: 514506675 heartbeat IPC: 1.27766 cumulative IPC: 1.27449 (Simulation time: 2 hr 3 min 20 sec) 
Heartbeat CPU 0 instructions: 980000000 cycles: 522320546 heartbeat IPC: 1.27978 cumulative IPC: 1.2746 (Simulation time: 2 hr 4 min 50 sec) 
Heartbeat CPU 0 instructions: 990000000 cycles: 530211614 heartbeat IPC: 1.26726 cumulative IPC: 1.27445 (Simulation time: 2 hr 6 min 16 sec) 
Heartbeat CPU 0 instructions: 1000000002 cycles: 538052767 heartbeat IPC: 1.27532 cumulative IPC: 1.27446 (Simulation time: 2 hr 7 min 44 sec) 
Heartbeat CPU 0 instructions: 1010000004 cycles: 545895100 heartbeat IPC: 1.27513 cumulative IPC: 1.27448 (Simulation time: 2 hr 9 min 25 sec) 
Heartbeat CPU 0 instructions: 1020000003 cycles: 553796545 heartbeat IPC: 1.26559 cumulative IPC: 1.2743 (Simulation time: 2 hr 10 min 58 sec) 
Heartbeat CPU 0 instructions: 1030000003 cycles: 561681752 heartbeat IPC: 1.2682 cumulative IPC: 1.27419 (Simulation time: 2 hr 12 min 33 sec) 
Heartbeat CPU 0 instructions: 1040000002 cycles: 569543388 heartbeat IPC: 1.272 cumulative IPC: 1.27415 (Simulation time: 2 hr 14 min 15 sec) 
Heartbeat CPU 0 instructions: 1050000003 cycles: 577450455 heartbeat IPC: 1.26469 cumulative IPC: 1.27397 (Simulation time: 2 hr 15 min 41 sec) 
Heartbeat CPU 0 instructions: 1060000004 cycles: 585397904 heartbeat IPC: 1.25827 cumulative IPC: 1.27369 (Simulation time: 2 hr 17 min 20 sec) 
Heartbeat CPU 0 instructions: 1070000000 cycles: 593357471 heartbeat IPC: 1.25635 cumulative IPC: 1.27338 (Simulation time: 2 hr 18 min 53 sec) 
Heartbeat CPU 0 instructions: 1080000002 cycles: 601257003 heartbeat IPC: 1.2659 cumulative IPC: 1.27325 (Simulation time: 2 hr 20 min 31 sec) 
Heartbeat CPU 0 instructions: 1090000000 cycles: 609108370 heartbeat IPC: 1.27366 cumulative IPC: 1.27326 (Simulation time: 2 hr 21 min 39 sec) 
Heartbeat CPU 0 instructions: 1100000000 cycles: 616934516 heartbeat IPC: 1.27777 cumulative IPC: 1.27333 (Simulation time: 2 hr 22 min 56 sec) 
Heartbeat CPU 0 instructions: 1110000004 cycles: 624775360 heartbeat IPC: 1.27537 cumulative IPC: 1.27337 (Simulation time: 2 hr 24 min 35 sec) 
Heartbeat CPU 0 instructions: 1120000000 cycles: 632650021 heartbeat IPC: 1.2699 cumulative IPC: 1.27331 (Simulation time: 2 hr 26 min 5 sec) 
Heartbeat CPU 0 instructions: 1130000000 cycles: 640553335 heartbeat IPC: 1.26529 cumulative IPC: 1.27318 (Simulation time: 2 hr 27 min 37 sec) 
Heartbeat CPU 0 instructions: 1140000001 cycles: 648449963 heartbeat IPC: 1.26636 cumulative IPC: 1.27308 (Simulation time: 2 hr 29 min 8 sec) 
Heartbeat CPU 0 instructions: 1150000000 cycles: 656349542 heartbeat IPC: 1.26589 cumulative IPC: 1.27297 (Simulation time: 2 hr 30 min 20 sec) 
Heartbeat CPU 0 instructions: 1160000000 cycles: 664207445 heartbeat IPC: 1.2726 cumulative IPC: 1.27296 (Simulation time: 2 hr 31 min 30 sec) 
Heartbeat CPU 0 instructions: 1170000004 cycles: 672046058 heartbeat IPC: 1.27574 cumulative IPC: 1.273 (Simulation time: 2 hr 32 min 37 sec) 
Heartbeat CPU 0 instructions: 1180000003 cycles: 679890595 heartbeat IPC: 1.27477 cumulative IPC: 1.27303 (Simulation time: 2 hr 33 min 44 sec) 
Heartbeat CPU 0 instructions: 1190000001 cycles: 687789436 heartbeat IPC: 1.26601 cumulative IPC: 1.27292 (Simulation time: 2 hr 35 min 2 sec) 
Heartbeat CPU 0 instructions: 1200000002 cycles: 695683021 heartbeat IPC: 1.26685 cumulative IPC: 1.27284 (Simulation time: 2 hr 36 min 15 sec) 
Heartbeat CPU 0 instructions: 1210000000 cycles: 703528062 heartbeat IPC: 1.27469 cumulative IPC: 1.27286 (Simulation time: 2 hr 38 min 2 sec) 
Heartbeat CPU 0 instructions: 1220000003 cycles: 711366213 heartbeat IPC: 1.27581 cumulative IPC: 1.2729 (Simulation time: 2 hr 39 min 50 sec) 
Heartbeat CPU 0 instructions: 1230000000 cycles: 719228555 heartbeat IPC: 1.27189 cumulative IPC: 1.27289 (Simulation time: 2 hr 41 min 34 sec) 
Heartbeat CPU 0 instructions: 1240000000 cycles: 727125449 heartbeat IPC: 1.26632 cumulative IPC: 1.2728 (Simulation time: 2 hr 42 min 50 sec) 
Heartbeat CPU 0 instructions: 1250000001 cycles: 734950593 heartbeat IPC: 1.27793 cumulative IPC: 1.27287 (Simulation time: 2 hr 43 min 49 sec) 
Heartbeat CPU 0 instructions: 1260000002 cycles: 742902028 heartbeat IPC: 1.25763 cumulative IPC: 1.27267 (Simulation time: 2 hr 44 min 46 sec) 
Heartbeat CPU 0 instructions: 1270000004 cycles: 750778203 heartbeat IPC: 1.26965 cumulative IPC: 1.27263 (Simulation time: 2 hr 45 min 47 sec) 
Heartbeat CPU 0 instructions: 1280000002 cycles: 758687521 heartbeat IPC: 1.26433 cumulative IPC: 1.27252 (Simulation time: 2 hr 46 min 44 sec) 
Heartbeat CPU 0 instructions: 1290000000 cycles: 766512308 heartbeat IPC: 1.27799 cumulative IPC: 1.27259 (Simulation time: 2 hr 47 min 42 sec) 
Heartbeat CPU 0 instructions: 1300000000 cycles: 774284990 heartbeat IPC: 1.28656 cumulative IPC: 1.27276 (Simulation time: 2 hr 48 min 52 sec) 
Heartbeat CPU 0 instructions: 1310000003 cycles: 782121493 heartbeat IPC: 1.27608 cumulative IPC: 1.2728 (Simulation time: 2 hr 49 min 49 sec) 
Heartbeat CPU 0 instructions: 1320000001 cycles: 789895622 heartbeat IPC: 1.28632 cumulative IPC: 1.27297 (Simulation time: 2 hr 50 min 47 sec) 
Heartbeat CPU 0 instructions: 1330000001 cycles: 797721213 heartbeat IPC: 1.27786 cumulative IPC: 1.27302 (Simulation time: 2 hr 51 min 45 sec) 
Heartbeat CPU 0 instructions: 1340000000 cycles: 805522990 heartbeat IPC: 1.28176 cumulative IPC: 1.27313 (Simulation time: 2 hr 52 min 44 sec) 
Heartbeat CPU 0 instructions: 1350000002 cycles: 813328222 heartbeat IPC: 1.28119 cumulative IPC: 1.27322 (Simulation time: 2 hr 53 min 41 sec) 
Heartbeat CPU 0 instructions: 1360000003 cycles: 821181656 heartbeat IPC: 1.27333 cumulative IPC: 1.27322 (Simulation time: 2 hr 54 min 37 sec) 
Heartbeat CPU 0 instructions: 1370000003 cycles: 829083010 heartbeat IPC: 1.26561 cumulative IPC: 1.27314 (Simulation time: 2 hr 55 min 33 sec) 
Heartbeat CPU 0 instructions: 1380000002 cycles: 836922625 heartbeat IPC: 1.27557 cumulative IPC: 1.27316 (Simulation time: 2 hr 56 min 29 sec) 
Heartbeat CPU 0 instructions: 1390000002 cycles: 844742526 heartbeat IPC: 1.27879 cumulative IPC: 1.27323 (Simulation time: 2 hr 57 min 25 sec) 
Heartbeat CPU 0 instructions: 1400000004 cycles: 852591965 heartbeat IPC: 1.27398 cumulative IPC: 1.27323 (Simulation time: 2 hr 58 min 22 sec) 
Heartbeat CPU 0 instructions: 1410000001 cycles: 860351026 heartbeat IPC: 1.28882 cumulative IPC: 1.2734 (Simulation time: 2 hr 59 min 20 sec) 
Heartbeat CPU 0 instructions: 1420000001 cycles: 868182897 heartbeat IPC: 1.27683 cumulative IPC: 1.27344 (Simulation time: 3 hr 0 min 17 sec) 
Heartbeat CPU 0 instructions: 1430000004 cycles: 875965196 heartbeat IPC: 1.28497 cumulative IPC: 1.27356 (Simulation time: 3 hr 1 min 14 sec) 
Heartbeat CPU 0 instructions: 1440000000 cycles: 883717158 heartbeat IPC: 1.29 cumulative IPC: 1.27374 (Simulation time: 3 hr 2 min 12 sec) 
Heartbeat CPU 0 instructions: 1450000001 cycles: 891629144 heartbeat IPC: 1.26391 cumulative IPC: 1.27363 (Simulation time: 3 hr 3 min 8 sec) 
Heartbeat CPU 0 instructions: 1460000003 cycles: 899485804 heartbeat IPC: 1.27281 cumulative IPC: 1.27362 (Simulation time: 3 hr 4 min 4 sec) 
Heartbeat CPU 0 instructions: 1470000001 cycles: 907329502 heartbeat IPC: 1.27491 cumulative IPC: 1.27364 (Simulation time: 3 hr 5 min 0 sec) 
Heartbeat CPU 0 instructions: 1480000001 cycles: 915158954 heartbeat IPC: 1.27723 cumulative IPC: 1.27367 (Simulation time: 3 hr 5 min 56 sec) 
Heartbeat CPU 0 instructions: 1490000004 cycles: 923042815 heartbeat IPC: 1.26841 cumulative IPC: 1.27362 (Simulation time: 3 hr 6 min 52 sec) 
Heartbeat CPU 0 instructions: 1500000004 cycles: 930966889 heartbeat IPC: 1.26198 cumulative IPC: 1.2735 (Simulation time: 3 hr 7 min 48 sec) 
Heartbeat CPU 0 instructions: 1510000004 cycles: 938854877 heartbeat IPC: 1.26775 cumulative IPC: 1.27345 (Simulation time: 3 hr 8 min 45 sec) 
Heartbeat CPU 0 instructions: 1520000000 cycles: 946811433 heartbeat IPC: 1.25682 cumulative IPC: 1.27328 (Simulation time: 3 hr 9 min 40 sec) 
Heartbeat CPU 0 instructions: 1530000002 cycles: 954770722 heartbeat IPC: 1.25639 cumulative IPC: 1.27311 (Simulation time: 3 hr 10 min 35 sec) 
Heartbeat CPU 0 instructions: 1540000000 cycles: 962662530 heartbeat IPC: 1.26714 cumulative IPC: 1.27306 (Simulation time: 3 hr 11 min 31 sec) 
Heartbeat CPU 0 instructions: 1550000003 cycles: 970603501 heartbeat IPC: 1.25929 cumulative IPC: 1.27292 (Simulation time: 3 hr 12 min 28 sec) 
Heartbeat CPU 0 instructions: 1560000001 cycles: 978429577 heartbeat IPC: 1.27778 cumulative IPC: 1.27297 (Simulation time: 3 hr 13 min 25 sec) 
Heartbeat CPU 0 instructions: 1570000004 cycles: 986311018 heartbeat IPC: 1.2688 cumulative IPC: 1.27293 (Simulation time: 3 hr 14 min 21 sec) 
Heartbeat CPU 0 instructions: 1580000003 cycles: 994177876 heartbeat IPC: 1.27116 cumulative IPC: 1.27291 (Simulation time: 3 hr 15 min 18 sec) 
Heartbeat CPU 0 instructions: 1590000004 cycles: 1001964842 heartbeat IPC: 1.2842 cumulative IPC: 1.27302 (Simulation time: 3 hr 16 min 15 sec) 
Heartbeat CPU 0 instructions: 1600000001 cycles: 1009760099 heartbeat IPC: 1.28283 cumulative IPC: 1.2731 (Simulation time: 3 hr 17 min 12 sec) 
Heartbeat CPU 0 instructions: 1610000000 cycles: 1017598654 heartbeat IPC: 1.27575 cumulative IPC: 1.27313 (Simulation time: 3 hr 18 min 8 sec) 
Heartbeat CPU 0 instructions: 1620000004 cycles: 1025425698 heartbeat IPC: 1.27762 cumulative IPC: 1.27317 (Simulation time: 3 hr 19 min 5 sec) 
Heartbeat CPU 0 instructions: 1630000003 cycles: 1033268341 heartbeat IPC: 1.27508 cumulative IPC: 1.27319 (Simulation time: 3 hr 20 min 2 sec) 
Heartbeat CPU 0 instructions: 1640000001 cycles: 1041100823 heartbeat IPC: 1.27673 cumulative IPC: 1.27322 (Simulation time: 3 hr 21 min 0 sec) 
Heartbeat CPU 0 instructions: 1650000001 cycles: 1048923548 heartbeat IPC: 1.27833 cumulative IPC: 1.27326 (Simulation time: 3 hr 21 min 57 sec) 
Heartbeat CPU 0 instructions: 1660000000 cycles: 1056743854 heartbeat IPC: 1.27872 cumulative IPC: 1.27331 (Simulation time: 3 hr 22 min 54 sec) 
Heartbeat CPU 0 instructions: 1670000001 cycles: 1064594526 heartbeat IPC: 1.27378 cumulative IPC: 1.27331 (Simulation time: 3 hr 23 min 51 sec) 
Heartbeat CPU 0 instructions: 1680000002 cycles: 1072457497 heartbeat IPC: 1.27178 cumulative IPC: 1.2733 (Simulation time: 3 hr 24 min 48 sec) 
Heartbeat CPU 0 instructions: 1690000000 cycles: 1080302558 heartbeat IPC: 1.27469 cumulative IPC: 1.27331 (Simulation time: 3 hr 25 min 44 sec) 
Heartbeat CPU 0 instructions: 1700000003 cycles: 1088150408 heartbeat IPC: 1.27423 cumulative IPC: 1.27332 (Simulation time: 3 hr 26 min 40 sec) 
Heartbeat CPU 0 instructions: 1710000002 cycles: 1096035751 heartbeat IPC: 1.26818 cumulative IPC: 1.27328 (Simulation time: 3 hr 27 min 37 sec) 
Heartbeat CPU 0 instructions: 1720000000 cycles: 1103928997 heartbeat IPC: 1.26691 cumulative IPC: 1.27322 (Simulation time: 3 hr 28 min 33 sec) 
Heartbeat CPU 0 instructions: 1730000000 cycles: 1111828499 heartbeat IPC: 1.2659 cumulative IPC: 1.27316 (Simulation time: 3 hr 29 min 29 sec) 
Heartbeat CPU 0 instructions: 1740000002 cycles: 1119728262 heartbeat IPC: 1.26586 cumulative IPC: 1.2731 (Simulation time: 3 hr 30 min 24 sec) 
Heartbeat CPU 0 instructions: 1750000004 cycles: 1127715128 heartbeat IPC: 1.25206 cumulative IPC: 1.27293 (Simulation time: 3 hr 31 min 21 sec) 
Heartbeat CPU 0 instructions: 1760000001 cycles: 1135661981 heartbeat IPC: 1.25836 cumulative IPC: 1.27282 (Simulation time: 3 hr 32 min 18 sec) 
Heartbeat CPU 0 instructions: 1770000000 cycles: 1143533964 heartbeat IPC: 1.27033 cumulative IPC: 1.2728 (Simulation time: 3 hr 33 min 14 sec) 
Heartbeat CPU 0 instructions: 1780000001 cycles: 1151395228 heartbeat IPC: 1.27206 cumulative IPC: 1.27279 (Simulation time: 3 hr 34 min 10 sec) 
Heartbeat CPU 0 instructions: 1790000001 cycles: 1159214768 heartbeat IPC: 1.27885 cumulative IPC: 1.27284 (Simulation time: 3 hr 35 min 7 sec) 
Heartbeat CPU 0 instructions: 1800000003 cycles: 1167029088 heartbeat IPC: 1.2797 cumulative IPC: 1.27289 (Simulation time: 3 hr 36 min 3 sec) 
Heartbeat CPU 0 instructions: 1810000000 cycles: 1174895108 heartbeat IPC: 1.27129 cumulative IPC: 1.27288 (Simulation time: 3 hr 37 min 0 sec) 
Heartbeat CPU 0 instructions: 1820000003 cycles: 1182751570 heartbeat IPC: 1.27284 cumulative IPC: 1.27288 (Simulation time: 3 hr 37 min 56 sec) 
Heartbeat CPU 0 instructions: 1830000003 cycles: 1190669473 heartbeat IPC: 1.26296 cumulative IPC: 1.2728 (Simulation time: 3 hr 38 min 52 sec) 
Heartbeat CPU 0 instructions: 1840000001 cycles: 1198558776 heartbeat IPC: 1.26754 cumulative IPC: 1.27276 (Simulation time: 3 hr 39 min 48 sec) 
Heartbeat CPU 0 instructions: 1850000002 cycles: 1206508142 heartbeat IPC: 1.25796 cumulative IPC: 1.27265 (Simulation time: 3 hr 40 min 44 sec) 
Heartbeat CPU 0 instructions: 1860000001 cycles: 1214440994 heartbeat IPC: 1.26058 cumulative IPC: 1.27256 (Simulation time: 3 hr 41 min 40 sec) 
Heartbeat CPU 0 instructions: 1870000001 cycles: 1222300758 heartbeat IPC: 1.2723 cumulative IPC: 1.27256 (Simulation time: 3 hr 42 min 37 sec) 
Heartbeat CPU 0 instructions: 1880000000 cycles: 1230196093 heartbeat IPC: 1.26657 cumulative IPC: 1.27252 (Simulation time: 3 hr 43 min 33 sec) 
Heartbeat CPU 0 instructions: 1890000000 cycles: 1238104764 heartbeat IPC: 1.26443 cumulative IPC: 1.27246 (Simulation time: 3 hr 44 min 30 sec) 
Heartbeat CPU 0 instructions: 1900000000 cycles: 1245974239 heartbeat IPC: 1.27073 cumulative IPC: 1.27245 (Simulation time: 3 hr 45 min 27 sec) 
Heartbeat CPU 0 instructions: 1910000000 cycles: 1253875591 heartbeat IPC: 1.26561 cumulative IPC: 1.2724 (Simulation time: 3 hr 46 min 23 sec) 
Heartbeat CPU 0 instructions: 1920000000 cycles: 1261815479 heartbeat IPC: 1.25946 cumulative IPC: 1.2723 (Simulation time: 3 hr 47 min 20 sec) 
Heartbeat CPU 0 instructions: 1930000001 cycles: 1269755745 heartbeat IPC: 1.2594 cumulative IPC: 1.27221 (Simulation time: 3 hr 48 min 17 sec) 
Heartbeat CPU 0 instructions: 1940000000 cycles: 1277689133 heartbeat IPC: 1.2605 cumulative IPC: 1.27213 (Simulation time: 3 hr 49 min 13 sec) 
Heartbeat CPU 0 instructions: 1950000000 cycles: 1285611072 heartbeat IPC: 1.26232 cumulative IPC: 1.27206 (Simulation time: 3 hr 50 min 10 sec) 
Heartbeat CPU 0 instructions: 1960000001 cycles: 1293483894 heartbeat IPC: 1.27019 cumulative IPC: 1.27205 (Simulation time: 3 hr 51 min 7 sec) 
Heartbeat CPU 0 instructions: 1970000002 cycles: 1301468340 heartbeat IPC: 1.25244 cumulative IPC: 1.27191 (Simulation time: 3 hr 52 min 4 sec) 
Heartbeat CPU 0 instructions: 1980000004 cycles: 1309518676 heartbeat IPC: 1.24218 cumulative IPC: 1.27171 (Simulation time: 3 hr 53 min 0 sec) 
Heartbeat CPU 0 instructions: 1990000004 cycles: 1317499461 heartbeat IPC: 1.25301 cumulative IPC: 1.27158 (Simulation time: 3 hr 53 min 56 sec) 
*** Reached end of trace: traces/644.nab_s-9322B.champsimtrace.xz
Heartbeat CPU 0 instructions: 2000000001 cycles: 1325553944 heartbeat IPC: 1.24154 cumulative IPC: 1.27138 (Simulation time: 3 hr 54 min 52 sec) 
Finished CPU 0 instructions: 1500000000 cycles: 1179823209 cumulative IPC: 1.27138 (Simulation time: 3 hr 54 min 52 sec) 

ChampSim completed all CPUs

Region of Interest Statistics

CPU 0 cumulative IPC: 1.27138 instructions: 1500000000 cycles: 1179823209
cpu0_DTLB TOTAL     ACCESS:  351550739  HIT:  350968175  MISS:     582564
cpu0_DTLB LOAD      ACCESS:  336554830  HIT:  335983454  MISS:     571376
cpu0_DTLB RFO       ACCESS:   14995909  HIT:   14984721  MISS:      11188
cpu0_DTLB PREFETCH  ACCESS:          0  HIT:          0  MISS:          0
cpu0_DTLB WRITEBACK ACCESS:          0  HIT:          0  MISS:          0
cpu0_DTLB TRANSLATION ACCESS:          0  HIT:          0  MISS:          0
cpu0_DTLB PREFETCH  REQUESTED:          0  ISSUED:          0  USEFUL:          0  USELESS:          0
cpu0_DTLB AVERAGE MISS LATENCY: 15.8209 cycles
cpu0_ITLB TOTAL     ACCESS:  108018402  HIT:  108018402  MISS:          0
cpu0_ITLB LOAD      ACCESS:  108018402  HIT:  108018402  MISS:          0
cpu0_ITLB RFO       ACCESS:          0  HIT:          0  MISS:          0
cpu0_ITLB PREFETCH  ACCESS:          0  HIT:          0  MISS:          0
cpu0_ITLB WRITEBACK ACCESS:          0  HIT:          0  MISS:          0
cpu0_ITLB TRANSLATION ACCESS:          0  HIT:          0  MISS:          0
cpu0_ITLB PREFETCH  REQUESTED:          0  ISSUED:          0  USEFUL:          0  USELESS:          0
cpu0_ITLB AVERAGE MISS LATENCY: -nan cycles
cpu0_L1I TOTAL     ACCESS:  113499711  HIT:  113499711  MISS:          0
cpu0_L1I LOAD      ACCESS:  113499711  HIT:  113499711  MISS:          0
cpu0_L1I RFO       ACCESS:          0  HIT:          0  MISS:          0
cpu0_L1I PREFETCH  ACCESS:          0  HIT:          0  MISS:          0
cpu0_L1I WRITEBACK ACCESS:          0  HIT:          0  MISS:          0
cpu0_L1I TRANSLATION ACCESS:          0  HIT:          0  MISS:          0
cpu0_L1I PREFETCH  REQUESTED:          0  ISSUED:          0  USEFUL:          0  USELESS:          0
cpu0_L1I AVERAGE MISS LATENCY: -nan cycles
cpu0_STLB TOTAL     ACCESS:     582564  HIT:     561562  MISS:      21002
cpu0_STLB LOAD      ACCESS:     571376  HIT:     550391  MISS:      20985
cpu0_STLB RFO       ACCESS:      11188  HIT:      11171  MISS:         17
cpu0_STLB PREFETCH  ACCESS:          0  HIT:          0  MISS:          0
cpu0_STLB WRITEBACK ACCESS:          0  HIT:          0  MISS:          0
cpu0_STLB TRANSLATION ACCESS:          0  HIT:          0  MISS:          0
cpu0_STLB PREFETCH  REQUESTED:          0  ISSUED:          0  USEFUL:          0  USELESS:          0
cpu0_STLB AVERAGE MISS LATENCY: 188.856 cycles
cpu0_L1D TOTAL     ACCESS:  430174644  HIT:  417232685  MISS:   12941959
cpu0_L1D LOAD      ACCESS:  405541898  HIT:  392620757  MISS:   12921141
cpu0_L1D RFO       ACCESS:   24611746  HIT:   24603395  MISS:       8351
cpu0_L1D PREFETCH  ACCESS:          0  HIT:          0  MISS:          0
cpu0_L1D WRITEBACK ACCESS:          0  HIT:          0  MISS:          0
cpu0_L1D TRANSLATION ACCESS:      21000  HIT:       8533  MISS:      12467
cpu0_L1D PREFETCH  REQUESTED:          0  ISSUED:          0  USEFUL:          0  USELESS:          0
cpu0_L1D AVERAGE MISS LATENCY: 20.065 cycles
cpu0_L2C TOTAL     ACCESS:   12950310  HIT:   11856920  MISS:    1093390
cpu0_L2C LOAD      ACCESS:   12921141  HIT:   11829420  MISS:    1091721
cpu0_L2C RFO       ACCESS:       8351  HIT:       7272  MISS:       1079
cpu0_L2C PREFETCH  ACCESS:          0  HIT:          0  MISS:          0
cpu0_L2C WRITEBACK ACCESS:       8351  HIT:       8351  MISS:          0
cpu0_L2C TRANSLATION ACCESS:      12467  HIT:      11877  MISS:        590
cpu0_L2C PREFETCH  REQUESTED:          0  ISSUED:          0  USEFUL:          0  USELESS:          0
cpu0_L2C AVERAGE MISS LATENCY: 107.207 cycles
LLC TOTAL     ACCESS:    1094472  HIT:      40346  MISS:    1054126
LLC LOAD      ACCESS:    1091721  HIT:      38908  MISS:    1052813
LLC RFO       ACCESS:       1079  HIT:          0  MISS:       1079
LLC PREFETCH  ACCESS:          0  HIT:          0  MISS:          0
LLC WRITEBACK ACCESS:       1082  HIT:       1082  MISS:          0
LLC TRANSLATION ACCESS:        590  HIT:        356  MISS:        234
LLC PREFETCH  REQUESTED:          0  ISSUED:          0  USEFUL:          0  USELESS:          0
LLC AVERAGE MISS LATENCY: 89.4176 cycles
~~~~~~~~~~Reuse Distance Profiler output~~~~~~~~~~
0	19402000	11267168
1	25013072	19573360
2	18348768	15424464
3	14606368	11786496
4	37627840	35828768
5	9368032	8501088
6	8339008	7182816
7	3125184	2192016
8	4406864	3833552
9	10182560	9802880
10	7275136	6888672
11	11951984	11850736
12	5787776	5542768
13	4061168	3706496
14	3812112	3430976
15	5896016	5420640
16	6872656	6550816
17	11064192	10806608
18	26945856	26671936
19	40122848	39748304
20	25795328	25661888
21	75029040	74989328
22	43069312	43019616
23	7264624	7189872
24	5053696	5000448
25	2734464	2671856
26	1621808	1555840
27	1687600	1639952
28	2391664	2310896
29	2390816	2254848
30	2090864	1891024
31	1859344	1677008
32	1847248	1756912
33	1328400	1233536
34	1257456	1179648
35	1344624	1312016
36	1417184	1399024
37	1445472	1410528
38	1659280	1547536
39	1758704	1564880
40	1476816	1311472
41	1457456	1360720
42	1379776	1271968
43	1576672	1418624
44	1564960	1307840
45	1317984	1180672
46	1130720	1010464
47	1227520	1121440
48	1690144	1603088
49	2311984	2216064
50	3923744	3850656
51	5000064	4959648
52	5091088	5068016
53	3966064	3946624
54	3364928	3350512
55	3835296	3814944
56	2844272	2810736
57	1700416	1608480
58	1335392	1207568
59	1304848	1212864
60	1169696	1116944
61	890448	858880
62	819952	795472
63	758480	733152
64	1600128	1534944
66	1735760	1608624
68	1512976	1444544
70	1681296	1669168
72	1369568	1360256
74	1320592	1308880
76	1594992	1582944
78	1246976	1221280
80	953952	926080
82	766336	724944
84	442080	419232
86	282032	267584
88	311344	282624
90	276576	235104
92	222800	215808
94	196016	193040
96	173632	166208
98	204176	196864
100	199984	185136
102	186544	167152
104	155104	140352
106	153552	138144
108	170304	156656
110	180832	168720
112	157424	134752
114	101664	88192
116	93872	91920
118	99648	94416
120	102496	94304
122	105888	95520
124	136624	122592
126	105664	94736
128	223744	208048
132	176240	160368
136	130688	109408
140	158736	148128
144	189008	169456
148	181152	169072
152	135088	127616
156	118912	103200
160	119616	109760
164	169184	155600
168	173136	160064
172	103168	98544
176	85136	76912
180	78816	63808
184	108336	99120
188	129376	119376
192	104480	98720
196	70992	66112
200	72560	61280
204	88608	78208
208	117456	110144
212	99280	91728
216	73680	69872
220	75408	68064
224	83840	71120
228	86112	81248
232	77552	71840
236	67632	62064
240	59696	53632
244	75984	66448
248	73376	66624
252	68160	64464
256	125136	114944
264	133600	117888
272	122720	114944
280	126704	115040
288	99728	89696
296	115344	104848
304	113584	104384
312	87120	79232
320	115408	105104
328	95248	87680
336	85728	77328
344	107664	99104
352	76752	70128
360	88608	81232
368	82720	77904
376	72752	64144
384	86896	80992
392	71472	67424
400	72672	64416
408	76032	70960
416	62720	57152
424	66688	60848
432	68096	63136
440	63232	56816
448	61280	57808
456	64400	59136
464	59424	53968
472	58128	54672
480	59824	54864
488	50528	46256
496	58976	54112
504	54304	51168
512	107216	98672
528	94368	87184
544	95280	88480
560	92896	86880
576	89808	82560
592	81600	74816
608	83392	77568
624	80784	74752
640	75984	69840
656	73744	67504
672	75888	70480
688	72400	66784
704	68464	64016
720	69936	64896
736	68384	63616
752	64768	59184
768	63424	58752
784	62032	57504
800	59632	55152
816	57840	53856
832	59888	55120
848	59408	55168
864	56704	52064
880	56320	52096
896	55152	51472
912	56016	51664
928	54176	50016
944	52128	48192
960	52848	49088
976	48992	45424
992	49440	45760
1008	48384	45456
1024	93104	86208
1056	92176	86224
1088	86720	80704
1120	85200	79216
1152	81536	75696
1184	77872	73120
1216	73840	68928
1248	73472	68512
1280	67968	63712
1312	66112	62288
1344	62992	58784
1376	61072	57248
1408	60944	57296
1440	58944	55344
1472	53936	50544
1504	53648	50016
1536	54688	51600
1568	51920	48608
1600	52720	49216
1632	49104	45840
1664	48928	45936
1696	47888	44896
1728	46816	43968
1760	44960	42144
1792	44912	42048
1824	44640	42096
1856	43072	40720
1888	42304	39792
1920	42336	39664
1952	40304	37536
1984	38720	36528
2016	38080	35984
2048	75504	70912
2112	73600	69536
2176	71744	67328
2240	72656	68416
2304	69936	65920
2368	69984	66000
2432	67408	63360
2496	65264	62016
2560	62992	59616
2624	63344	60096
2688	60496	57328
2752	59136	56032
2816	57792	55168
2880	56320	53664
2944	55728	53152
3008	56144	53120
3072	55696	53024
3136	53056	50752
3200	51600	49104
3264	49920	47984
3328	48880	46800
3392	49040	47392
3456	46640	45088
3520	46880	45552
3584	44400	42912
3648	42736	41312
3712	43504	42176
3776	42224	41120
3840	40608	39680
3904	42000	40880
3968	39728	38912
4032	39840	38976
4096	79296	77744
4224	75120	73664
4352	72672	71600
4480	69712	68944
4608	70432	69456
4736	67360	66576
4864	65168	64432
4992	65456	64816
5120	61776	61248
5248	59920	59504
5376	59760	59280
5504	57744	57328
5632	55712	55280
5760	55984	55520
5888	53776	53552
6016	53488	53216
6144	54352	54144
6272	51488	51200
6400	50320	50256
6528	49552	49424
6656	47152	47056
6784	45120	44992
6912	45808	45632
7040	44224	44160
7168	43600	43504
7296	42608	42592
7424	42960	42896
7552	40560	40512
7680	41744	41712
7808	38000	37952
7936	39824	39776
8064	38688	38640
8192	72400	72352
8448	73776	73648
8704	70736	70672
8960	68672	68624
9216	67200	67152
9472	62272	62240
9728	61776	61760
9984	58832	58816
10240	57920	57920
10496	55408	55376
10752	55136	55136
11008	53360	53360
11264	52096	52080
11520	49536	49536
11776	48608	48608
12032	45600	45600
12288	46096	46096
12544	44608	44608
12800	43504	43504
13056	41072	41072
13312	40352	40352
13568	40224	40224
13824	38848	38848
14080	38560	38560
14336	36048	36048
14592	35696	35696
14848	36576	36560
15104	34912	34912
15360	32896	32896
15616	32272	32272
15872	32640	32640
16128	31840	31824
16384	60320	60304
16896	60832	60832
17408	61184	61168
17920	60752	60720
18432	60064	60048
18944	57456	57392
19456	56560	56544
19968	58656	58656
20480	60896	60880
20992	61104	61072
21504	62944	62896
22016	60944	60880
22528	62000	61984
23040	57040	57008
23552	60384	60368
24064	60496	60432
24576	63344	63232
25088	63136	63104
25600	61728	61680
26112	65360	65328
26624	58208	58160
27136	68288	68240
27648	66096	66080
28160	69968	69920
28672	70208	70192
29184	78160	78080
29696	74624	74576
30208	77760	77712
30720	78816	78672
31232	83680	83600
31744	81696	81584
32256	77344	77280
32768	166608	166528
33792	166912	166704
34816	172912	172736
35840	185200	185040
36864	210176	209984
37888	224256	224144
38912	218208	218016
39936	231136	230992
40960	237408	237248
41984	231200	231008
43008	240416	240272
44032	245344	245216
45056	256496	256224
46080	267728	267552
47104	278752	278624
48128	275504	275344
49152	293264	293072
50176	321648	321360
51200	339280	338992
52224	362496	362208
53248	380848	380688
54272	363936	363712
55296	384080	383856
56320	390912	390768
57344	388624	388384
58368	400384	400144
59392	411136	411024
60416	391168	390928
61440	370592	370368
62464	354848	354576
63488	331984	331904
64512	295680	295552
65536	559328	559136
67584	528016	527712
69632	545568	545216
71680	552800	552528
73728	498928	498592
75776	387840	387632
77824	331808	331664
79872	298096	298000
81920	273280	273152
83968	171840	171808
86016	82624	82624
88064	34528	34528
90112	16048	16048
92160	7728	7728
94208	8464	8464
96256	7840	7840
98304	8672	8672
100352	9184	9184
102400	10448	10448
104448	10688	10688
106496	11184	11184
108544	10576	10576
110592	9360	9360
112640	10624	10624
114688	11184	11184
116736	10544	10544
118784	12496	12496
120832	11472	11472
122880	11472	11472
124928	10224	10224
126976	8768	8768
129024	8016	8016
131072	15360	15360
135168	15440	15440
139264	16160	16160
143360	17824	17824
147456	14032	14032
151552	13872	13872
155648	11984	11984
159744	13744	13744
163840	13200	13200
167936	10864	10864
172032	7424	7424
176128	6960	6960
180224	6272	6272
184320	5936	5936
188416	5792	5792
192512	5408	5408
196608	4640	4640
200704	5584	5584
204800	5200	5200
208896	5536	5536
212992	5856	5856
217088	6320	6320
221184	5872	5872
225280	5984	5984
229376	5088	5088
233472	4864	4864
237568	4688	4688
241664	4928	4928
245760	5088	5088
249856	5024	5024
253952	3760	3760
258048	3744	3744
262144	6432	6432
270336	6112	6112
278528	6768	6768
286720	7360	7360
294912	6224	6224
303104	5824	5824
311296	6352	6352
319488	5776	5776
327680	5056	5056
335872	5040	5040
344064	5120	5120
352256	4928	4928
360448	4720	4720
368640	4816	4816
376832	3824	3824
385024	3824	3824
393216	2880	2880
401408	3552	3552
409600	3808	3808
417792	4016	4016
425984	3568	3568
434176	3664	3664
442368	3488	3488
450560	2944	2944
458752	2400	2400
466944	3104	3104
475136	2832	2832
483328	2464	2464
491520	3072	3072
499712	2720	2720
507904	2448	2448
516096	3056	3056
524288	4464	4464
540672	4144	4144
557056	5232	5232
573440	4976	4976
589824	3904	3904
606208	3456	3456
622592	2944	2944
638976	3584	3584
655360	4176	4176
671744	3744	3744
688128	3200	3200
704512	2784	2784
720896	3440	3440
737280	3648	3648
753664	2416	2416
770048	1696	1696
786432	2752	2752
802816	2816	2816
819200	2480	2480
835584	2368	2368
851968	2352	2352
868352	2448	2448
884736	2032	2032
901120	2240	2240
917504	2224	2224
933888	2208	2208
950272	1760	1760
966656	2080	2080
983040	2208	2208
999424	1680	1680
1015808	1536	1536
1032192	1376	1376
1048576	3264	3264
1081344	2928	2928
1114112	2832	2832
1146880	3504	3504
1179648	2640	2640
1212416	2496	2496
1245184	2192	2192
1277952	2144	2144
1310720	2096	2096
1343488	1856	1856
1376256	2208	2208
1409024	1728	1728
1441792	1760	1760
1474560	1632	1632
1507328	1568	1568
1540096	1456	1456
1572864	1696	1696
1605632	1696	1696
1638400	1776	1776
1671168	1472	1472
1703936	1280	1280
1736704	1536	1536
1769472	1520	1520
1802240	1408	1408
1835008	1488	1488
1867776	1456	1456
1900544	1056	1056
1933312	1296	1296
1966080	1344	1344
1998848	1360	1360
2031616	1280	1280
2064384	1360	1360
2097152	2336	2336
2162688	2272	2272
2228224	2368	2368
2293760	2416	2416
2359296	2096	2096
2424832	1904	1904
2490368	1984	1984
2555904	1936	1936
2621440	2112	2112
2686976	1696	1696
2752512	1968	1968
2818048	1744	1744
2883584	1760	1760
2949120	1728	1728
3014656	1648	1648
3080192	1472	1472
3145728	1072	1072
3211264	1216	1216
3276800	1248	1248
3342336	1216	1216
3407872	912	912
3473408	1056	1056
3538944	1072	1072
3604480	864	864
3670016	992	992
3735552	720	720
3801088	784	784
3866624	512	512
3932160	640	640
3997696	688	688
4063232	784	784
4128768	544	544
4194304	1488	1488
4325376	1184	1184
4456448	992	992
4587520	912	912
4718592	688	688
4849664	864	864
4980736	880	880
5111808	944	944
5242880	784	784
5373952	608	608
5505024	560	560
5636096	624	624
5767168	464	464
5898240	576	576
6029312	720	720
6160384	640	640
6291456	512	512
6422528	352	352
6553600	448	448
6684672	384	384
6815744	368	368
6946816	400	400
7077888	368	368
7208960	480	480
7340032	672	672
7471104	624	624
7602176	272	272
7733248	464	464
7864320	464	464
7995392	320	320
8126464	448	448
8257536	432	432
8388608	608	608
8650752	784	784
8912896	544	544
9175040	512	512
9437184	512	512
9699328	560	560
9961472	704	704
10223616	688	688
10485760	608	608
10747904	560	560
11010048	592	592
11272192	576	576
11534336	368	368
11796480	544	544
12058624	576	576
12320768	704	704
12582912	560	560
12845056	528	528
13107200	704	704
13369344	528	528
13631488	800	800
13893632	304	304
14155776	304	304
14417920	448	448
14680064	224	224
14942208	400	400
15204352	384	384
15466496	384	384
15728640	384	384
15990784	464	464
16252928	368	368
16515072	496	496
16777216	672	672
17301504	848	848
17825792	496	496
18350080	592	592
18874368	416	416
19398656	688	688
19922944	432	432
20447232	368	368
20971520	384	384
21495808	384	384
22020096	240	240
22544384	480	480
23068672	336	336
23592960	496	496
24117248	304	304
24641536	368	368
25165824	560	560
25690112	448	448
26214400	336	336
26738688	208	208
27262976	464	464
27787264	304	304
28311552	336	336
28835840	352	352
29360128	352	352
29884416	208	208
30408704	480	480
30932992	576	576
31457280	400	400
31981568	336	336
32505856	288	288
33030144	304	304
33554432	464	464
34603008	560	560
35651584	816	816
36700160	688	688
37748736	592	592
38797312	464	464
39845888	416	416
40894464	368	368
41943040	368	368
42991616	400	400
44040192	416	416
45088768	432	432
46137344	192	192
47185920	464	464
48234496	224	224
49283072	240	240
50331648	240	240
51380224	496	496
52428800	352	352
53477376	272	272
54525952	416	416
55574528	448	448
56623104	192	192
57671680	112	112
58720256	272	272
59768832	240	240
60817408	320	320
61865984	192	192
62914560	80	80
63963136	80	80
65011712	80	80
66060288	96	96
67108864	432	432
69206016	240	240
71303168	272	272
73400320	96	96
75497472	96	96
77594624	96	96
79691776	272	272
81788928	320	320
83886080	384	384
85983232	480	480
88080384	368	368
90177536	192	192
92274688	224	224
94371840	144	144
96468992	144	144
98566144	352	352
100663296	144	144
102760448	256	256
104857600	128	128
106954752	224	224
109051904	256	256
111149056	208	208
113246208	80	80
115343360	224	224
117440512	96	96
119537664	256	256
121634816	128	128
123731968	144	144
125829120	128	128
127926272	224	224
130023424	32	32
132120576	48	48
134217728	64	64
138412032	272	272
142606336	784	784
146800640	448	448
150994944	256	256
155189248	256	256
159383552	320	320
163577856	320	320
167772160	528	528
171966464	336	336
176160768	240	240
180355072	464	464
184549376	384	384
188743680	432	432
192937984	672	672
197132288	448	448
201326592	224	224
205520896	304	304
209715200	384	384
213909504	176	176
218103808	304	304
222298112	256	256
226492416	256	256
230686720	64	64
234881024	0	0
239075328	64	64
243269632	240	240
247463936	112	112
251658240	176	176
255852544	304	304
260046848	128	128
264241152	112	112
268435456	224	224
276824064	208	208
285212672	272	272
293601280	144	144
301989888	144	144
310378496	80	80
318767104	128	128
327155712	144	144
335544320	48	48
343932928	0	0
352321536	16	16
360710144	32	32
369098752	128	128
377487360	160	160
385875968	496	496
394264576	64	64
402653184	96	96
411041792	0	0
419430400	0	0
427819008	0	0
436207616	112	112
444596224	16	16
452984832	0	0
461373440	0	0
469762048	0	0
478150656	0	0
486539264	0	0
494927872	0	0
503316480	0	0
511705088	0	0
520093696	0	0
528482304	0	0
536870912	0	0
553648128	0	0
570425344	0	0
587202560	0	0
603979776	0	0
620756992	0	0
637534208	0	0
654311424	0	0
671088640	0	0
687865856	0	0
704643072	0	0
721420288	0	0
738197504	0	0
754974720	0	0
771751936	0	0
788529152	0	0
805306368	0	0
822083584	0	0
838860800	0	0
855638016	0	0
872415232	0	0
889192448	0	0
905969664	0	0
922746880	0	0
939524096	0	0
956301312	0	0
973078528	0	0
989855744	0	0
1006632960	0	0
1023410176	0	0
1040187392	0	0
1056964608	0	0
1073741824	0	0
1107296256	0	0
1140850688	0	0
1174405120	0	0
1207959552	0	0
1241513984	0	0
1275068416	0	0
1308622848	0	0
1342177280	0	0
1375731712	0	0
1409286144	0	0
1442840576	0	0
1476395008	0	0
1509949440	0	0
1543503872	0	0
1577058304	0	0
1610612736	0	0
1644167168	0	0
1677721600	0	0
1711276032	0	0
1744830464	0	0
1778384896	0	0
1811939328	0	0
1845493760	0	0
1879048192	0	0
1912602624	0	0
1946157056	0	0
1979711488	0	0
2013265920	0	0
2046820352	0	0
2080374784	0	0
2113929216	0	0
2147483648	0	0
2214592512	0	0
2281701376	0	0
2348810240	0	0
2415919104	0	0
2483027968	0	0
2550136832	0	0
2617245696	0	0
2684354560	0	0
2751463424	0	0
2818572288	0	0
2885681152	0	0
2952790016	0	0
3019898880	0	0
3087007744	0	0
3154116608	0	0
3221225472	0	0
3288334336	0	0
3355443200	0	0
3422552064	0	0
3489660928	0	0
3556769792	0	0
3623878656	0	0
3690987520	0	0
3758096384	0	0
3825205248	0	0
3892314112	0	0
3959422976	0	0
4026531840	0	0
4093640704	0	0
4160749568	0	0
4227858432	0	0
~~~~~~~~~~Reuse Distance Profiler output end~~~~~~~~~~

DRAM Statistics
 CHANNEL 0
 RQ ROW_BUFFER_HIT:     771032  ROW_BUFFER_MISS:     283094
 DBUS AVG_CONGESTED_CYCLE:    3.47104
 WQ ROW_BUFFER_HIT:         24  ROW_BUFFER_MISS:       1060  FULL:          0


CPU 0 Branch Prediction Accuracy: 98.1111% MPKI: 2.43016 Average ROB Occupancy at Mispredict: 172.469
Branch type MPKI
BRANCH_DIRECT_JUMP: 1.33333e-06
BRANCH_INDIRECT: 0
BRANCH_CONDITIONAL: 2.43016
BRANCH_DIRECT_CALL: 0
BRANCH_INDIRECT_CALL: 0
BRANCH_RETURN: 0

