
*** ChampSim Multicore Out-of-Order Simulator ***

Warmup Instructions: 500000000
Simulation Instructions: 1500000000
Number of CPUs: 1
Off-chip DRAM Size: 4 GiB Channels: 1 Width: 64-bit Data Rate: 3200 MT/s

VirtualMemory physical capacity: 8588881920 num_ppages: 2096895
VirtualMemory page size: 4096 log2_page_size: 12

CPU 0 runs traces/644.nab_s-5853B.champsimtrace.xz
CPU 0 Bimodal branch predictor
Basic BTB sets: 1024 ways: 8 indirect buffer size: 4096 RAS size: 64
Initializing LRU.
Initializing LRU.
Initializing LRU.
Initializing LRU.
Initializing rdLRU.
Initializing LRU.
Initializing LRU.
Heartbeat CPU 0 instructions: 10000003 cycles: 2500090 heartbeat IPC: 3.99986 cumulative IPC: 3.99986 (Simulation time: 0 hr 0 min 55 sec) 
Heartbeat CPU 0 instructions: 20000003 cycles: 5000090 heartbeat IPC: 4 cumulative IPC: 3.99993 (Simulation time: 0 hr 1 min 51 sec) 
Heartbeat CPU 0 instructions: 30000003 cycles: 7500090 heartbeat IPC: 4 cumulative IPC: 3.99995 (Simulation time: 0 hr 2 min 49 sec) 
Heartbeat CPU 0 instructions: 40000003 cycles: 10000090 heartbeat IPC: 4 cumulative IPC: 3.99996 (Simulation time: 0 hr 3 min 45 sec) 
Heartbeat CPU 0 instructions: 50000003 cycles: 12500090 heartbeat IPC: 4 cumulative IPC: 3.99997 (Simulation time: 0 hr 4 min 43 sec) 
Heartbeat CPU 0 instructions: 60000003 cycles: 15000090 heartbeat IPC: 4 cumulative IPC: 3.99998 (Simulation time: 0 hr 5 min 43 sec) 
Heartbeat CPU 0 instructions: 70000003 cycles: 17500090 heartbeat IPC: 4 cumulative IPC: 3.99998 (Simulation time: 0 hr 6 min 38 sec) 
Heartbeat CPU 0 instructions: 80000003 cycles: 20000090 heartbeat IPC: 4 cumulative IPC: 3.99998 (Simulation time: 0 hr 7 min 31 sec) 
Heartbeat CPU 0 instructions: 90000003 cycles: 22500090 heartbeat IPC: 4 cumulative IPC: 3.99998 (Simulation time: 0 hr 8 min 28 sec) 
Heartbeat CPU 0 instructions: 100000003 cycles: 25000090 heartbeat IPC: 4 cumulative IPC: 3.99999 (Simulation time: 0 hr 9 min 27 sec) 
Heartbeat CPU 0 instructions: 110000003 cycles: 27500090 heartbeat IPC: 4 cumulative IPC: 3.99999 (Simulation time: 0 hr 10 min 23 sec) 
Heartbeat CPU 0 instructions: 120000003 cycles: 30000090 heartbeat IPC: 4 cumulative IPC: 3.99999 (Simulation time: 0 hr 11 min 21 sec) 
Heartbeat CPU 0 instructions: 130000003 cycles: 32500090 heartbeat IPC: 4 cumulative IPC: 3.99999 (Simulation time: 0 hr 12 min 18 sec) 
Heartbeat CPU 0 instructions: 140000003 cycles: 35000090 heartbeat IPC: 4 cumulative IPC: 3.99999 (Simulation time: 0 hr 13 min 14 sec) 
Heartbeat CPU 0 instructions: 150000003 cycles: 37500090 heartbeat IPC: 4 cumulative IPC: 3.99999 (Simulation time: 0 hr 14 min 11 sec) 
Heartbeat CPU 0 instructions: 160000003 cycles: 40000090 heartbeat IPC: 4 cumulative IPC: 3.99999 (Simulation time: 0 hr 15 min 10 sec) 
Heartbeat CPU 0 instructions: 170000003 cycles: 42500090 heartbeat IPC: 4 cumulative IPC: 3.99999 (Simulation time: 0 hr 16 min 9 sec) 
Heartbeat CPU 0 instructions: 180000003 cycles: 45000090 heartbeat IPC: 4 cumulative IPC: 3.99999 (Simulation time: 0 hr 17 min 9 sec) 
Heartbeat CPU 0 instructions: 190000003 cycles: 47500090 heartbeat IPC: 4 cumulative IPC: 3.99999 (Simulation time: 0 hr 18 min 2 sec) 
Heartbeat CPU 0 instructions: 200000003 cycles: 50000090 heartbeat IPC: 4 cumulative IPC: 3.99999 (Simulation time: 0 hr 18 min 59 sec) 
Heartbeat CPU 0 instructions: 210000003 cycles: 52500090 heartbeat IPC: 4 cumulative IPC: 3.99999 (Simulation time: 0 hr 19 min 55 sec) 
Heartbeat CPU 0 instructions: 220000003 cycles: 55000090 heartbeat IPC: 4 cumulative IPC: 3.99999 (Simulation time: 0 hr 20 min 50 sec) 
Heartbeat CPU 0 instructions: 230000003 cycles: 57500090 heartbeat IPC: 4 cumulative IPC: 3.99999 (Simulation time: 0 hr 21 min 47 sec) 
Heartbeat CPU 0 instructions: 240000003 cycles: 60000090 heartbeat IPC: 4 cumulative IPC: 3.99999 (Simulation time: 0 hr 22 min 41 sec) 
Heartbeat CPU 0 instructions: 250000003 cycles: 62500090 heartbeat IPC: 4 cumulative IPC: 3.99999 (Simulation time: 0 hr 23 min 27 sec) 
Heartbeat CPU 0 instructions: 260000003 cycles: 65000090 heartbeat IPC: 4 cumulative IPC: 3.99999 (Simulation time: 0 hr 24 min 22 sec) 
Heartbeat CPU 0 instructions: 270000003 cycles: 67500090 heartbeat IPC: 4 cumulative IPC: 3.99999 (Simulation time: 0 hr 25 min 15 sec) 
Heartbeat CPU 0 instructions: 280000003 cycles: 70000090 heartbeat IPC: 4 cumulative IPC: 3.99999 (Simulation time: 0 hr 26 min 14 sec) 
Heartbeat CPU 0 instructions: 290000003 cycles: 72500090 heartbeat IPC: 4 cumulative IPC: 3.99999 (Simulation time: 0 hr 27 min 7 sec) 
Heartbeat CPU 0 instructions: 300000003 cycles: 75000090 heartbeat IPC: 4 cumulative IPC: 4 (Simulation time: 0 hr 28 min 4 sec) 
Heartbeat CPU 0 instructions: 310000003 cycles: 77500090 heartbeat IPC: 4 cumulative IPC: 4 (Simulation time: 0 hr 28 min 56 sec) 
Heartbeat CPU 0 instructions: 320000003 cycles: 80000090 heartbeat IPC: 4 cumulative IPC: 4 (Simulation time: 0 hr 29 min 54 sec) 
Heartbeat CPU 0 instructions: 330000003 cycles: 82500090 heartbeat IPC: 4 cumulative IPC: 4 (Simulation time: 0 hr 30 min 49 sec) 
Heartbeat CPU 0 instructions: 340000003 cycles: 85000090 heartbeat IPC: 4 cumulative IPC: 4 (Simulation time: 0 hr 31 min 48 sec) 
Heartbeat CPU 0 instructions: 350000003 cycles: 87500090 heartbeat IPC: 4 cumulative IPC: 4 (Simulation time: 0 hr 32 min 46 sec) 
Heartbeat CPU 0 instructions: 360000003 cycles: 90000090 heartbeat IPC: 4 cumulative IPC: 4 (Simulation time: 0 hr 33 min 42 sec) 
Heartbeat CPU 0 instructions: 370000003 cycles: 92500090 heartbeat IPC: 4 cumulative IPC: 4 (Simulation time: 0 hr 34 min 31 sec) 
Heartbeat CPU 0 instructions: 380000003 cycles: 95000090 heartbeat IPC: 4 cumulative IPC: 4 (Simulation time: 0 hr 35 min 24 sec) 
Heartbeat CPU 0 instructions: 390000003 cycles: 97500090 heartbeat IPC: 4 cumulative IPC: 4 (Simulation time: 0 hr 36 min 18 sec) 
Heartbeat CPU 0 instructions: 400000003 cycles: 100000090 heartbeat IPC: 4 cumulative IPC: 4 (Simulation time: 0 hr 37 min 7 sec) 
Heartbeat CPU 0 instructions: 410000003 cycles: 102500090 heartbeat IPC: 4 cumulative IPC: 4 (Simulation time: 0 hr 37 min 55 sec) 
Heartbeat CPU 0 instructions: 420000003 cycles: 105000090 heartbeat IPC: 4 cumulative IPC: 4 (Simulation time: 0 hr 38 min 55 sec) 
Heartbeat CPU 0 instructions: 430000003 cycles: 107500090 heartbeat IPC: 4 cumulative IPC: 4 (Simulation time: 0 hr 39 min 45 sec) 
Heartbeat CPU 0 instructions: 440000003 cycles: 110000090 heartbeat IPC: 4 cumulative IPC: 4 (Simulation time: 0 hr 40 min 39 sec) 
Heartbeat CPU 0 instructions: 450000003 cycles: 112500090 heartbeat IPC: 4 cumulative IPC: 4 (Simulation time: 0 hr 41 min 30 sec) 
Heartbeat CPU 0 instructions: 460000003 cycles: 115000090 heartbeat IPC: 4 cumulative IPC: 4 (Simulation time: 0 hr 42 min 26 sec) 
Heartbeat CPU 0 instructions: 470000003 cycles: 117500090 heartbeat IPC: 4 cumulative IPC: 4 (Simulation time: 0 hr 43 min 17 sec) 
Heartbeat CPU 0 instructions: 480000003 cycles: 120000090 heartbeat IPC: 4 cumulative IPC: 4 (Simulation time: 0 hr 44 min 6 sec) 
Heartbeat CPU 0 instructions: 490000003 cycles: 122500090 heartbeat IPC: 4 cumulative IPC: 4 (Simulation time: 0 hr 45 min 0 sec) 
Heartbeat CPU 0 instructions: 500000003 cycles: 125000090 heartbeat IPC: 4 cumulative IPC: 4 (Simulation time: 0 hr 45 min 53 sec) 

Warmup complete CPU 0 instructions: 500000003 cycles: 125000090 (Simulation time: 0 hr 45 min 53 sec) 

Heartbeat CPU 0 instructions: 510000000 cycles: 133102843 heartbeat IPC: 1.23415 cumulative IPC: 1.23415 (Simulation time: 0 hr 47 min 3 sec) 
Heartbeat CPU 0 instructions: 520000000 cycles: 141233920 heartbeat IPC: 1.22985 cumulative IPC: 1.23199 (Simulation time: 0 hr 48 min 3 sec) 
Heartbeat CPU 0 instructions: 530000003 cycles: 149329393 heartbeat IPC: 1.23526 cumulative IPC: 1.23308 (Simulation time: 0 hr 49 min 4 sec) 
Heartbeat CPU 0 instructions: 540000003 cycles: 157377445 heartbeat IPC: 1.24254 cumulative IPC: 1.23543 (Simulation time: 0 hr 49 min 56 sec) 
Heartbeat CPU 0 instructions: 550000002 cycles: 165416048 heartbeat IPC: 1.244 cumulative IPC: 1.23714 (Simulation time: 0 hr 51 min 4 sec) 
Heartbeat CPU 0 instructions: 560000001 cycles: 173444156 heartbeat IPC: 1.24562 cumulative IPC: 1.23854 (Simulation time: 0 hr 52 min 0 sec) 
Heartbeat CPU 0 instructions: 570000002 cycles: 181478960 heartbeat IPC: 1.24459 cumulative IPC: 1.2394 (Simulation time: 0 hr 52 min 56 sec) 
Heartbeat CPU 0 instructions: 580000000 cycles: 189478748 heartbeat IPC: 1.25003 cumulative IPC: 1.24072 (Simulation time: 0 hr 54 min 5 sec) 
Heartbeat CPU 0 instructions: 590000001 cycles: 197530985 heartbeat IPC: 1.24189 cumulative IPC: 1.24085 (Simulation time: 0 hr 54 min 58 sec) 
Heartbeat CPU 0 instructions: 600000003 cycles: 205542530 heartbeat IPC: 1.2482 cumulative IPC: 1.24158 (Simulation time: 0 hr 55 min 53 sec) 
Heartbeat CPU 0 instructions: 610000001 cycles: 213576886 heartbeat IPC: 1.24465 cumulative IPC: 1.24186 (Simulation time: 0 hr 57 min 3 sec) 
Heartbeat CPU 0 instructions: 620000000 cycles: 221597122 heartbeat IPC: 1.24685 cumulative IPC: 1.24227 (Simulation time: 0 hr 58 min 2 sec) 
Heartbeat CPU 0 instructions: 630000002 cycles: 229666915 heartbeat IPC: 1.23919 cumulative IPC: 1.24204 (Simulation time: 0 hr 59 min 4 sec) 
Heartbeat CPU 0 instructions: 640000000 cycles: 237714663 heartbeat IPC: 1.24258 cumulative IPC: 1.24208 (Simulation time: 1 hr 0 min 9 sec) 
Heartbeat CPU 0 instructions: 650000002 cycles: 245785771 heartbeat IPC: 1.23899 cumulative IPC: 1.24187 (Simulation time: 1 hr 1 min 7 sec) 
Heartbeat CPU 0 instructions: 660000000 cycles: 253853401 heartbeat IPC: 1.23952 cumulative IPC: 1.24172 (Simulation time: 1 hr 2 min 2 sec) 
Heartbeat CPU 0 instructions: 670000004 cycles: 261969185 heartbeat IPC: 1.23217 cumulative IPC: 1.24116 (Simulation time: 1 hr 2 min 48 sec) 
Heartbeat CPU 0 instructions: 680000000 cycles: 270071266 heartbeat IPC: 1.23425 cumulative IPC: 1.24077 (Simulation time: 1 hr 3 min 41 sec) 
Heartbeat CPU 0 instructions: 690000001 cycles: 278130106 heartbeat IPC: 1.24087 cumulative IPC: 1.24078 (Simulation time: 1 hr 4 min 26 sec) 
Heartbeat CPU 0 instructions: 700000004 cycles: 286194004 heartbeat IPC: 1.2401 cumulative IPC: 1.24074 (Simulation time: 1 hr 5 min 8 sec) 
Heartbeat CPU 0 instructions: 710000001 cycles: 294387672 heartbeat IPC: 1.22045 cumulative IPC: 1.23976 (Simulation time: 1 hr 6 min 7 sec) 
Heartbeat CPU 0 instructions: 720000003 cycles: 302547964 heartbeat IPC: 1.22545 cumulative IPC: 1.2391 (Simulation time: 1 hr 6 min 59 sec) 
Heartbeat CPU 0 instructions: 730000001 cycles: 310663013 heartbeat IPC: 1.23228 cumulative IPC: 1.2388 (Simulation time: 1 hr 7 min 45 sec) 
Heartbeat CPU 0 instructions: 740000002 cycles: 318708320 heartbeat IPC: 1.24296 cumulative IPC: 1.23898 (Simulation time: 1 hr 8 min 33 sec) 
Heartbeat CPU 0 instructions: 750000003 cycles: 326786743 heartbeat IPC: 1.23787 cumulative IPC: 1.23893 (Simulation time: 1 hr 9 min 31 sec) 
Heartbeat CPU 0 instructions: 760000001 cycles: 334808821 heartbeat IPC: 1.24656 cumulative IPC: 1.23922 (Simulation time: 1 hr 10 min 34 sec) 
Heartbeat CPU 0 instructions: 770000001 cycles: 342839250 heartbeat IPC: 1.24526 cumulative IPC: 1.23945 (Simulation time: 1 hr 11 min 46 sec) 
Heartbeat CPU 0 instructions: 780000002 cycles: 350867553 heartbeat IPC: 1.24559 cumulative IPC: 1.23967 (Simulation time: 1 hr 12 min 55 sec) 
Heartbeat CPU 0 instructions: 790000001 cycles: 358854485 heartbeat IPC: 1.25205 cumulative IPC: 1.24009 (Simulation time: 1 hr 14 min 6 sec) 
Heartbeat CPU 0 instructions: 800000000 cycles: 366870015 heartbeat IPC: 1.24758 cumulative IPC: 1.24034 (Simulation time: 1 hr 15 min 17 sec) 
Heartbeat CPU 0 instructions: 810000004 cycles: 374871513 heartbeat IPC: 1.24977 cumulative IPC: 1.24064 (Simulation time: 1 hr 16 min 13 sec) 
Heartbeat CPU 0 instructions: 820000000 cycles: 382827206 heartbeat IPC: 1.25696 cumulative IPC: 1.24114 (Simulation time: 1 hr 17 min 7 sec) 
Heartbeat CPU 0 instructions: 830000001 cycles: 390794724 heartbeat IPC: 1.2551 cumulative IPC: 1.24156 (Simulation time: 1 hr 18 min 8 sec) 
Heartbeat CPU 0 instructions: 840000000 cycles: 398761107 heartbeat IPC: 1.25527 cumulative IPC: 1.24196 (Simulation time: 1 hr 18 min 57 sec) 
Heartbeat CPU 0 instructions: 850000003 cycles: 406736172 heartbeat IPC: 1.25391 cumulative IPC: 1.2423 (Simulation time: 1 hr 19 min 59 sec) 
Heartbeat CPU 0 instructions: 860000004 cycles: 414728080 heartbeat IPC: 1.25127 cumulative IPC: 1.24254 (Simulation time: 1 hr 20 min 52 sec) 
Heartbeat CPU 0 instructions: 870000004 cycles: 422700596 heartbeat IPC: 1.25431 cumulative IPC: 1.24286 (Simulation time: 1 hr 21 min 47 sec) 
Heartbeat CPU 0 instructions: 880000000 cycles: 430687490 heartbeat IPC: 1.25205 cumulative IPC: 1.2431 (Simulation time: 1 hr 22 min 39 sec) 
Heartbeat CPU 0 instructions: 890000000 cycles: 438656384 heartbeat IPC: 1.25488 cumulative IPC: 1.2434 (Simulation time: 1 hr 23 min 38 sec) 
Heartbeat CPU 0 instructions: 900000000 cycles: 446624095 heartbeat IPC: 1.25507 cumulative IPC: 1.24369 (Simulation time: 1 hr 24 min 42 sec) 
Heartbeat CPU 0 instructions: 910000001 cycles: 454589584 heartbeat IPC: 1.25542 cumulative IPC: 1.24397 (Simulation time: 1 hr 25 min 43 sec) 
Heartbeat CPU 0 instructions: 920000004 cycles: 462636040 heartbeat IPC: 1.24278 cumulative IPC: 1.24394 (Simulation time: 1 hr 26 min 41 sec) 
Heartbeat CPU 0 instructions: 930000000 cycles: 470732215 heartbeat IPC: 1.23515 cumulative IPC: 1.24374 (Simulation time: 1 hr 27 min 38 sec) 
Heartbeat CPU 0 instructions: 940000000 cycles: 478850889 heartbeat IPC: 1.23173 cumulative IPC: 1.24346 (Simulation time: 1 hr 28 min 40 sec) 
Heartbeat CPU 0 instructions: 950000000 cycles: 486939807 heartbeat IPC: 1.23626 cumulative IPC: 1.2433 (Simulation time: 1 hr 29 min 33 sec) 
Heartbeat CPU 0 instructions: 960000002 cycles: 495132648 heartbeat IPC: 1.22058 cumulative IPC: 1.2428 (Simulation time: 1 hr 30 min 38 sec) 
Heartbeat CPU 0 instructions: 970000000 cycles: 503316682 heartbeat IPC: 1.22189 cumulative IPC: 1.24235 (Simulation time: 1 hr 31 min 40 sec) 
Heartbeat CPU 0 instructions: 980000000 cycles: 511480690 heartbeat IPC: 1.22489 cumulative IPC: 1.24198 (Simulation time: 1 hr 32 min 48 sec) 
Heartbeat CPU 0 instructions: 990000004 cycles: 519621988 heartbeat IPC: 1.22831 cumulative IPC: 1.24169 (Simulation time: 1 hr 33 min 41 sec) 
Heartbeat CPU 0 instructions: 1000000001 cycles: 527746805 heartbeat IPC: 1.2308 cumulative IPC: 1.24148 (Simulation time: 1 hr 34 min 31 sec) 
Heartbeat CPU 0 instructions: 1010000002 cycles: 535949897 heartbeat IPC: 1.21905 cumulative IPC: 1.24103 (Simulation time: 1 hr 35 min 35 sec) 
Heartbeat CPU 0 instructions: 1020000002 cycles: 544208674 heartbeat IPC: 1.21083 cumulative IPC: 1.24043 (Simulation time: 1 hr 36 min 33 sec) 
Heartbeat CPU 0 instructions: 1030000001 cycles: 552496335 heartbeat IPC: 1.20661 cumulative IPC: 1.23978 (Simulation time: 1 hr 37 min 42 sec) 
Heartbeat CPU 0 instructions: 1040000002 cycles: 560813482 heartbeat IPC: 1.20234 cumulative IPC: 1.23906 (Simulation time: 1 hr 38 min 54 sec) 
Heartbeat CPU 0 instructions: 1050000001 cycles: 569197303 heartbeat IPC: 1.19277 cumulative IPC: 1.23819 (Simulation time: 1 hr 39 min 51 sec) 
Heartbeat CPU 0 instructions: 1060000002 cycles: 577561646 heartbeat IPC: 1.19555 cumulative IPC: 1.2374 (Simulation time: 1 hr 40 min 36 sec) 
Heartbeat CPU 0 instructions: 1070000000 cycles: 585921626 heartbeat IPC: 1.19617 cumulative IPC: 1.23665 (Simulation time: 1 hr 41 min 36 sec) 
Heartbeat CPU 0 instructions: 1080000000 cycles: 594280832 heartbeat IPC: 1.19629 cumulative IPC: 1.23593 (Simulation time: 1 hr 42 min 39 sec) 
Heartbeat CPU 0 instructions: 1090000000 cycles: 602687477 heartbeat IPC: 1.18954 cumulative IPC: 1.23512 (Simulation time: 1 hr 43 min 49 sec) 
Heartbeat CPU 0 instructions: 1100000000 cycles: 611079698 heartbeat IPC: 1.19158 cumulative IPC: 1.23437 (Simulation time: 1 hr 44 min 41 sec) 
Heartbeat CPU 0 instructions: 1110000002 cycles: 619428297 heartbeat IPC: 1.19781 cumulative IPC: 1.23375 (Simulation time: 1 hr 45 min 25 sec) 
Heartbeat CPU 0 instructions: 1120000003 cycles: 627735214 heartbeat IPC: 1.20382 cumulative IPC: 1.23325 (Simulation time: 1 hr 46 min 10 sec) 
Heartbeat CPU 0 instructions: 1130000002 cycles: 635823117 heartbeat IPC: 1.23641 cumulative IPC: 1.2333 (Simulation time: 1 hr 46 min 52 sec) 
Heartbeat CPU 0 instructions: 1140000000 cycles: 643921023 heartbeat IPC: 1.23489 cumulative IPC: 1.23333 (Simulation time: 1 hr 47 min 38 sec) 
Heartbeat CPU 0 instructions: 1150000001 cycles: 652030761 heartbeat IPC: 1.23309 cumulative IPC: 1.23332 (Simulation time: 1 hr 48 min 19 sec) 
Heartbeat CPU 0 instructions: 1160000000 cycles: 660119474 heartbeat IPC: 1.23629 cumulative IPC: 1.23337 (Simulation time: 1 hr 49 min 0 sec) 
Heartbeat CPU 0 instructions: 1170000001 cycles: 668416569 heartbeat IPC: 1.20524 cumulative IPC: 1.23294 (Simulation time: 1 hr 49 min 42 sec) 
Heartbeat CPU 0 instructions: 1180000002 cycles: 676825988 heartbeat IPC: 1.18914 cumulative IPC: 1.23227 (Simulation time: 1 hr 50 min 25 sec) 
Heartbeat CPU 0 instructions: 1190000001 cycles: 684993596 heartbeat IPC: 1.22435 cumulative IPC: 1.23216 (Simulation time: 1 hr 51 min 24 sec) 
Heartbeat CPU 0 instructions: 1200000001 cycles: 693161344 heartbeat IPC: 1.22433 cumulative IPC: 1.23204 (Simulation time: 1 hr 52 min 34 sec) 
Heartbeat CPU 0 instructions: 1210000001 cycles: 701252680 heartbeat IPC: 1.23589 cumulative IPC: 1.2321 (Simulation time: 1 hr 53 min 38 sec) 
Heartbeat CPU 0 instructions: 1220000003 cycles: 709360902 heartbeat IPC: 1.23332 cumulative IPC: 1.23212 (Simulation time: 1 hr 54 min 43 sec) 
Heartbeat CPU 0 instructions: 1230000003 cycles: 717422765 heartbeat IPC: 1.24041 cumulative IPC: 1.23223 (Simulation time: 1 hr 55 min 40 sec) 
Heartbeat CPU 0 instructions: 1240000004 cycles: 725494959 heartbeat IPC: 1.23882 cumulative IPC: 1.23232 (Simulation time: 1 hr 56 min 46 sec) 
Heartbeat CPU 0 instructions: 1250000001 cycles: 733536643 heartbeat IPC: 1.24352 cumulative IPC: 1.23247 (Simulation time: 1 hr 57 min 35 sec) 
Heartbeat CPU 0 instructions: 1260000003 cycles: 741625953 heartbeat IPC: 1.2362 cumulative IPC: 1.23251 (Simulation time: 1 hr 58 min 31 sec) 
Heartbeat CPU 0 instructions: 1270000003 cycles: 749709082 heartbeat IPC: 1.23714 cumulative IPC: 1.23257 (Simulation time: 1 hr 59 min 19 sec) 
Heartbeat CPU 0 instructions: 1280000000 cycles: 757723829 heartbeat IPC: 1.2477 cumulative IPC: 1.23277 (Simulation time: 2 hr 0 min 9 sec) 
Heartbeat CPU 0 instructions: 1290000000 cycles: 765715135 heartbeat IPC: 1.25136 cumulative IPC: 1.233 (Simulation time: 2 hr 1 min 17 sec) 
Heartbeat CPU 0 instructions: 1300000000 cycles: 773718331 heartbeat IPC: 1.2495 cumulative IPC: 1.2332 (Simulation time: 2 hr 2 min 28 sec) 
Heartbeat CPU 0 instructions: 1310000000 cycles: 781781037 heartbeat IPC: 1.24028 cumulative IPC: 1.23329 (Simulation time: 2 hr 3 min 27 sec) 
Heartbeat CPU 0 instructions: 1320000000 cycles: 789824746 heartbeat IPC: 1.24321 cumulative IPC: 1.23341 (Simulation time: 2 hr 4 min 17 sec) 
Heartbeat CPU 0 instructions: 1330000000 cycles: 797905640 heartbeat IPC: 1.23749 cumulative IPC: 1.23346 (Simulation time: 2 hr 5 min 14 sec) 
Heartbeat CPU 0 instructions: 1340000004 cycles: 805963539 heartbeat IPC: 1.24102 cumulative IPC: 1.23355 (Simulation time: 2 hr 6 min 22 sec) 
Heartbeat CPU 0 instructions: 1350000000 cycles: 813980858 heartbeat IPC: 1.2473 cumulative IPC: 1.23371 (Simulation time: 2 hr 7 min 27 sec) 
Heartbeat CPU 0 instructions: 1360000001 cycles: 821996184 heartbeat IPC: 1.24761 cumulative IPC: 1.23387 (Simulation time: 2 hr 8 min 30 sec) 
Heartbeat CPU 0 instructions: 1370000000 cycles: 830042058 heartbeat IPC: 1.24287 cumulative IPC: 1.23397 (Simulation time: 2 hr 9 min 42 sec) 
Heartbeat CPU 0 instructions: 1380000001 cycles: 838057746 heartbeat IPC: 1.24755 cumulative IPC: 1.23412 (Simulation time: 2 hr 10 min 50 sec) 
Heartbeat CPU 0 instructions: 1390000001 cycles: 846092244 heartbeat IPC: 1.24463 cumulative IPC: 1.23424 (Simulation time: 2 hr 11 min 42 sec) 
Heartbeat CPU 0 instructions: 1400000004 cycles: 854183683 heartbeat IPC: 1.23587 cumulative IPC: 1.23426 (Simulation time: 2 hr 12 min 25 sec) 
Heartbeat CPU 0 instructions: 1410000003 cycles: 862314923 heartbeat IPC: 1.22982 cumulative IPC: 1.23421 (Simulation time: 2 hr 13 min 15 sec) 
Heartbeat CPU 0 instructions: 1420000002 cycles: 870425138 heartbeat IPC: 1.23301 cumulative IPC: 1.2342 (Simulation time: 2 hr 14 min 16 sec) 
Heartbeat CPU 0 instructions: 1430000004 cycles: 878552988 heartbeat IPC: 1.23034 cumulative IPC: 1.23415 (Simulation time: 2 hr 15 min 9 sec) 
Heartbeat CPU 0 instructions: 1440000001 cycles: 886673429 heartbeat IPC: 1.23146 cumulative IPC: 1.23412 (Simulation time: 2 hr 16 min 9 sec) 
Heartbeat CPU 0 instructions: 1450000000 cycles: 894755630 heartbeat IPC: 1.23729 cumulative IPC: 1.23416 (Simulation time: 2 hr 17 min 14 sec) 
Heartbeat CPU 0 instructions: 1460000001 cycles: 902783240 heartbeat IPC: 1.2457 cumulative IPC: 1.23428 (Simulation time: 2 hr 18 min 22 sec) 
Heartbeat CPU 0 instructions: 1470000000 cycles: 910814252 heartbeat IPC: 1.24517 cumulative IPC: 1.23439 (Simulation time: 2 hr 19 min 16 sec) 
Heartbeat CPU 0 instructions: 1480000002 cycles: 918914417 heartbeat IPC: 1.23454 cumulative IPC: 1.23439 (Simulation time: 2 hr 20 min 15 sec) 
Heartbeat CPU 0 instructions: 1490000000 cycles: 927036748 heartbeat IPC: 1.23117 cumulative IPC: 1.23436 (Simulation time: 2 hr 21 min 17 sec) 
Heartbeat CPU 0 instructions: 1500000002 cycles: 935231398 heartbeat IPC: 1.22031 cumulative IPC: 1.23422 (Simulation time: 2 hr 22 min 5 sec) 
Heartbeat CPU 0 instructions: 1510000000 cycles: 943422071 heartbeat IPC: 1.2209 cumulative IPC: 1.23408 (Simulation time: 2 hr 22 min 51 sec) 
Heartbeat CPU 0 instructions: 1520000003 cycles: 951654150 heartbeat IPC: 1.21476 cumulative IPC: 1.23389 (Simulation time: 2 hr 23 min 38 sec) 
Heartbeat CPU 0 instructions: 1530000002 cycles: 959836436 heartbeat IPC: 1.22215 cumulative IPC: 1.23377 (Simulation time: 2 hr 24 min 29 sec) 
Heartbeat CPU 0 instructions: 1540000004 cycles: 968089460 heartbeat IPC: 1.21168 cumulative IPC: 1.23356 (Simulation time: 2 hr 25 min 38 sec) 
Heartbeat CPU 0 instructions: 1550000004 cycles: 976375636 heartbeat IPC: 1.20683 cumulative IPC: 1.2333 (Simulation time: 2 hr 26 min 31 sec) 
Heartbeat CPU 0 instructions: 1560000003 cycles: 984695556 heartbeat IPC: 1.20193 cumulative IPC: 1.23299 (Simulation time: 2 hr 27 min 18 sec) 
Heartbeat CPU 0 instructions: 1570000000 cycles: 993256353 heartbeat IPC: 1.16812 cumulative IPC: 1.23235 (Simulation time: 2 hr 28 min 2 sec) 
Heartbeat CPU 0 instructions: 1580000000 cycles: 1001643649 heartbeat IPC: 1.19228 cumulative IPC: 1.23197 (Simulation time: 2 hr 28 min 46 sec) 
Heartbeat CPU 0 instructions: 1590000003 cycles: 1009628696 heartbeat IPC: 1.25234 cumulative IPC: 1.23216 (Simulation time: 2 hr 29 min 57 sec) 
Heartbeat CPU 0 instructions: 1600000004 cycles: 1017600789 heartbeat IPC: 1.25438 cumulative IPC: 1.23235 (Simulation time: 2 hr 30 min 52 sec) 
Heartbeat CPU 0 instructions: 1610000004 cycles: 1025566207 heartbeat IPC: 1.25543 cumulative IPC: 1.23256 (Simulation time: 2 hr 31 min 52 sec) 
Heartbeat CPU 0 instructions: 1620000002 cycles: 1033528026 heartbeat IPC: 1.25599 cumulative IPC: 1.23276 (Simulation time: 2 hr 33 min 1 sec) 
Heartbeat CPU 0 instructions: 1630000004 cycles: 1041485805 heartbeat IPC: 1.25663 cumulative IPC: 1.23297 (Simulation time: 2 hr 34 min 5 sec) 
Heartbeat CPU 0 instructions: 1640000003 cycles: 1049444820 heartbeat IPC: 1.25644 cumulative IPC: 1.23317 (Simulation time: 2 hr 35 min 3 sec) 
Heartbeat CPU 0 instructions: 1650000000 cycles: 1057518844 heartbeat IPC: 1.23854 cumulative IPC: 1.23322 (Simulation time: 2 hr 35 min 42 sec) 
Heartbeat CPU 0 instructions: 1660000002 cycles: 1065566053 heartbeat IPC: 1.24267 cumulative IPC: 1.2333 (Simulation time: 2 hr 36 min 21 sec) 
Heartbeat CPU 0 instructions: 1670000000 cycles: 1073563882 heartbeat IPC: 1.25034 cumulative IPC: 1.23344 (Simulation time: 2 hr 37 min 1 sec) 
Heartbeat CPU 0 instructions: 1680000004 cycles: 1081538194 heartbeat IPC: 1.25403 cumulative IPC: 1.23362 (Simulation time: 2 hr 37 min 40 sec) 
Heartbeat CPU 0 instructions: 1690000002 cycles: 1089478157 heartbeat IPC: 1.25945 cumulative IPC: 1.23383 (Simulation time: 2 hr 38 min 20 sec) 
Heartbeat CPU 0 instructions: 1700000004 cycles: 1097438520 heartbeat IPC: 1.25622 cumulative IPC: 1.23401 (Simulation time: 2 hr 38 min 59 sec) 
Heartbeat CPU 0 instructions: 1710000002 cycles: 1105393237 heartbeat IPC: 1.25712 cumulative IPC: 1.2342 (Simulation time: 2 hr 39 min 39 sec) 
Heartbeat CPU 0 instructions: 1720000002 cycles: 1113350063 heartbeat IPC: 1.25678 cumulative IPC: 1.23438 (Simulation time: 2 hr 40 min 18 sec) 
Heartbeat CPU 0 instructions: 1730000000 cycles: 1121304483 heartbeat IPC: 1.25716 cumulative IPC: 1.23456 (Simulation time: 2 hr 40 min 58 sec) 
Heartbeat CPU 0 instructions: 1740000002 cycles: 1129247998 heartbeat IPC: 1.25889 cumulative IPC: 1.23475 (Simulation time: 2 hr 41 min 37 sec) 
Heartbeat CPU 0 instructions: 1750000004 cycles: 1137201537 heartbeat IPC: 1.2573 cumulative IPC: 1.23493 (Simulation time: 2 hr 42 min 16 sec) 
Heartbeat CPU 0 instructions: 1760000001 cycles: 1145174006 heartbeat IPC: 1.25432 cumulative IPC: 1.23508 (Simulation time: 2 hr 42 min 55 sec) 
Heartbeat CPU 0 instructions: 1770000001 cycles: 1153139224 heartbeat IPC: 1.25546 cumulative IPC: 1.23524 (Simulation time: 2 hr 43 min 34 sec) 
Heartbeat CPU 0 instructions: 1780000000 cycles: 1161096404 heartbeat IPC: 1.25673 cumulative IPC: 1.23541 (Simulation time: 2 hr 44 min 14 sec) 
Heartbeat CPU 0 instructions: 1790000000 cycles: 1169068089 heartbeat IPC: 1.25444 cumulative IPC: 1.23555 (Simulation time: 2 hr 44 min 53 sec) 
Heartbeat CPU 0 instructions: 1800000004 cycles: 1177044508 heartbeat IPC: 1.2537 cumulative IPC: 1.23569 (Simulation time: 2 hr 45 min 59 sec) 
Heartbeat CPU 0 instructions: 1810000001 cycles: 1185087545 heartbeat IPC: 1.24331 cumulative IPC: 1.23575 (Simulation time: 2 hr 47 min 6 sec) 
Heartbeat CPU 0 instructions: 1820000004 cycles: 1193204836 heartbeat IPC: 1.23194 cumulative IPC: 1.23572 (Simulation time: 2 hr 47 min 46 sec) 
Heartbeat CPU 0 instructions: 1830000001 cycles: 1201172159 heartbeat IPC: 1.25513 cumulative IPC: 1.23586 (Simulation time: 2 hr 48 min 26 sec) 
Heartbeat CPU 0 instructions: 1840000000 cycles: 1209147848 heartbeat IPC: 1.25381 cumulative IPC: 1.23599 (Simulation time: 2 hr 49 min 6 sec) 
Heartbeat CPU 0 instructions: 1850000000 cycles: 1217133298 heartbeat IPC: 1.25228 cumulative IPC: 1.23611 (Simulation time: 2 hr 49 min 46 sec) 
Heartbeat CPU 0 instructions: 1860000001 cycles: 1225096317 heartbeat IPC: 1.25581 cumulative IPC: 1.23626 (Simulation time: 2 hr 50 min 27 sec) 
Heartbeat CPU 0 instructions: 1870000000 cycles: 1233046658 heartbeat IPC: 1.25781 cumulative IPC: 1.23641 (Simulation time: 2 hr 51 min 6 sec) 
Heartbeat CPU 0 instructions: 1880000000 cycles: 1240990182 heartbeat IPC: 1.25889 cumulative IPC: 1.23657 (Simulation time: 2 hr 51 min 45 sec) 
Heartbeat CPU 0 instructions: 1890000004 cycles: 1248950676 heartbeat IPC: 1.2562 cumulative IPC: 1.23671 (Simulation time: 2 hr 52 min 25 sec) 
Heartbeat CPU 0 instructions: 1900000000 cycles: 1256909645 heartbeat IPC: 1.25644 cumulative IPC: 1.23685 (Simulation time: 2 hr 53 min 4 sec) 
Heartbeat CPU 0 instructions: 1910000003 cycles: 1264873427 heartbeat IPC: 1.25569 cumulative IPC: 1.23698 (Simulation time: 2 hr 53 min 44 sec) 
Heartbeat CPU 0 instructions: 1920000003 cycles: 1272853004 heartbeat IPC: 1.2532 cumulative IPC: 1.23709 (Simulation time: 2 hr 54 min 23 sec) 
Heartbeat CPU 0 instructions: 1930000002 cycles: 1280826704 heartbeat IPC: 1.25412 cumulative IPC: 1.23721 (Simulation time: 2 hr 55 min 1 sec) 
Heartbeat CPU 0 instructions: 1940000003 cycles: 1288835957 heartbeat IPC: 1.24856 cumulative IPC: 1.23729 (Simulation time: 2 hr 55 min 40 sec) 
Heartbeat CPU 0 instructions: 1950000000 cycles: 1296872777 heartbeat IPC: 1.24427 cumulative IPC: 1.23734 (Simulation time: 2 hr 56 min 20 sec) 
Heartbeat CPU 0 instructions: 1960000001 cycles: 1305045605 heartbeat IPC: 1.22357 cumulative IPC: 1.23724 (Simulation time: 2 hr 56 min 59 sec) 
Heartbeat CPU 0 instructions: 1970000002 cycles: 1313158984 heartbeat IPC: 1.23253 cumulative IPC: 1.23721 (Simulation time: 2 hr 57 min 39 sec) 
Heartbeat CPU 0 instructions: 1980000000 cycles: 1321157885 heartbeat IPC: 1.25017 cumulative IPC: 1.23729 (Simulation time: 2 hr 58 min 18 sec) 
Heartbeat CPU 0 instructions: 1990000003 cycles: 1329160835 heartbeat IPC: 1.24954 cumulative IPC: 1.23738 (Simulation time: 2 hr 58 min 57 sec) 
*** Reached end of trace: traces/644.nab_s-5853B.champsimtrace.xz
Heartbeat CPU 0 instructions: 2000000002 cycles: 1337157827 heartbeat IPC: 1.25047 cumulative IPC: 1.23746 (Simulation time: 2 hr 59 min 36 sec) 
Finished CPU 0 instructions: 1500000004 cycles: 1212157746 cumulative IPC: 1.23746 (Simulation time: 2 hr 59 min 36 sec) 

ChampSim completed all CPUs

Region of Interest Statistics

CPU 0 cumulative IPC: 1.23746 instructions: 1500000004 cycles: 1212157746
cpu0_DTLB TOTAL     ACCESS:  341534471  HIT:  338427904  MISS:    3106567
cpu0_DTLB LOAD      ACCESS:  263666473  HIT:  260635845  MISS:    3030628
cpu0_DTLB RFO       ACCESS:   77867998  HIT:   77792059  MISS:      75939
cpu0_DTLB PREFETCH  ACCESS:          0  HIT:          0  MISS:          0
cpu0_DTLB WRITEBACK ACCESS:          0  HIT:          0  MISS:          0
cpu0_DTLB TRANSLATION ACCESS:          0  HIT:          0  MISS:          0
cpu0_DTLB PREFETCH  REQUESTED:          0  ISSUED:          0  USEFUL:          0  USELESS:          0
cpu0_DTLB AVERAGE MISS LATENCY: 9.83941 cycles
cpu0_ITLB TOTAL     ACCESS:  161652730  HIT:  161652730  MISS:          0
cpu0_ITLB LOAD      ACCESS:  161652730  HIT:  161652730  MISS:          0
cpu0_ITLB RFO       ACCESS:          0  HIT:          0  MISS:          0
cpu0_ITLB PREFETCH  ACCESS:          0  HIT:          0  MISS:          0
cpu0_ITLB WRITEBACK ACCESS:          0  HIT:          0  MISS:          0
cpu0_ITLB TRANSLATION ACCESS:          0  HIT:          0  MISS:          0
cpu0_ITLB PREFETCH  REQUESTED:          0  ISSUED:          0  USEFUL:          0  USELESS:          0
cpu0_ITLB AVERAGE MISS LATENCY: -nan cycles
cpu0_L1I TOTAL     ACCESS:      31667  HIT:      31666  MISS:          1
cpu0_L1I LOAD      ACCESS:      31667  HIT:      31666  MISS:          1
cpu0_L1I RFO       ACCESS:          0  HIT:          0  MISS:          0
cpu0_L1I PREFETCH  ACCESS:          0  HIT:          0  MISS:          0
cpu0_L1I WRITEBACK ACCESS:          0  HIT:          0  MISS:          0
cpu0_L1I TRANSLATION ACCESS:          0  HIT:          0  MISS:          0
cpu0_L1I PREFETCH  REQUESTED:          0  ISSUED:          0  USEFUL:          0  USELESS:          0
cpu0_L1I AVERAGE MISS LATENCY: 194 cycles
cpu0_STLB TOTAL     ACCESS:    3106567  HIT:    3094009  MISS:      12558
cpu0_STLB LOAD      ACCESS:    3030628  HIT:    3018074  MISS:      12554
cpu0_STLB RFO       ACCESS:      75939  HIT:      75935  MISS:          4
cpu0_STLB PREFETCH  ACCESS:          0  HIT:          0  MISS:          0
cpu0_STLB WRITEBACK ACCESS:          0  HIT:          0  MISS:          0
cpu0_STLB TRANSLATION ACCESS:          0  HIT:          0  MISS:          0
cpu0_STLB PREFETCH  REQUESTED:          0  ISSUED:          0  USEFUL:          0  USELESS:          0
cpu0_STLB AVERAGE MISS LATENCY: 207.523 cycles
cpu0_L1D TOTAL     ACCESS:  481905426  HIT:  476356638  MISS:    5548788
cpu0_L1D LOAD      ACCESS:  315923201  HIT:  310390201  MISS:    5533000
cpu0_L1D RFO       ACCESS:  165969676  HIT:  165959498  MISS:      10178
cpu0_L1D PREFETCH  ACCESS:          0  HIT:          0  MISS:          0
cpu0_L1D WRITEBACK ACCESS:          0  HIT:          0  MISS:          0
cpu0_L1D TRANSLATION ACCESS:      12549  HIT:       6939  MISS:       5610
cpu0_L1D PREFETCH  REQUESTED:          0  ISSUED:          0  USEFUL:          0  USELESS:          0
cpu0_L1D AVERAGE MISS LATENCY: 17.8341 cycles
cpu0_L2C TOTAL     ACCESS:    7436162  HIT:    7133633  MISS:     302529
cpu0_L2C LOAD      ACCESS:    5532976  HIT:    5231494  MISS:     301482
cpu0_L2C RFO       ACCESS:      10178  HIT:       9474  MISS:        704
cpu0_L2C PREFETCH  ACCESS:          0  HIT:          0  MISS:          0
cpu0_L2C WRITEBACK ACCESS:    1887398  HIT:    1887347  MISS:         51
cpu0_L2C TRANSLATION ACCESS:       5610  HIT:       5318  MISS:        292
cpu0_L2C PREFETCH  REQUESTED:          0  ISSUED:          0  USEFUL:          0  USELESS:          0
cpu0_L2C AVERAGE MISS LATENCY: 125.159 cycles
LLC TOTAL     ACCESS:     313052  HIT:      16690  MISS:     296362
LLC LOAD      ACCESS:     301482  HIT:       7607  MISS:     293875
LLC RFO       ACCESS:        704  HIT:        670  MISS:         34
LLC PREFETCH  ACCESS:          0  HIT:          0  MISS:          0
LLC WRITEBACK ACCESS:      10574  HIT:       8225  MISS:       2349
LLC TRANSLATION ACCESS:        292  HIT:        188  MISS:        104
LLC PREFETCH  REQUESTED:          0  ISSUED:          0  USEFUL:          0  USELESS:          0
LLC AVERAGE MISS LATENCY: 106.33 cycles
~~~~~~~~~~Reuse Distance Profiler output~~~~~~~~~~
0	78327216	1498800
1	40212384	22116672
2	33088144	31025984
3	19855312	14998688
4	11587376	3206128
5	20698320	3630304
6	18901792	12040656
7	19374800	14212208
8	12825600	6493392
9	8263024	5893760
10	11120848	8879152
11	19404480	16365536
12	13308160	9927152
13	3287104	1487808
14	9459632	4999504
15	1386464	1132624
16	7868352	1648080
17	11038416	8175808
18	5630016	5446992
19	2900768	2233952
20	5893824	4747040
21	9180144	6002144
22	4778960	1839040
23	2656528	1696704
24	7499664	5352160
25	3131552	2401280
26	7908976	6844864
27	7498064	6899008
28	674976	360400
29	2536896	1124128
30	7367328	5300944
31	810384	107056
32	2921296	2595120
33	1962512	1190432
34	1964928	662032
35	3563040	2858464
36	3490736	40752
37	968560	10144
38	588384	73872
39	3430624	900096
40	6964176	733376
41	2214880	722128
42	1674400	520976
43	885104	869792
44	3819584	3811888
45	6410048	6406976
46	549888	546304
47	623472	619760
48	34352	29712
49	210080	207680
50	2906416	2905104
51	967040	964752
52	100784	98176
53	6320	3360
54	313776	3360
55	475792	6752
56	504160	6432
57	118640	16896
58	103168	100944
59	208752	207552
60	167232	165664
61	794192	791136
62	592976	589424
63	680736	677664
64	3951952	3909632
66	804912	414576
68	910512	76880
70	696000	102352
72	851200	244816
74	4180048	3742480
76	785296	573024
78	4532880	1452960
80	4863488	3815696
82	515824	507488
84	4691744	4685888
86	4252688	4243616
88	1152880	1145904
90	427552	425632
92	900992	865632
94	2165296	1812288
96	4603200	3311360
98	2148288	1119024
100	1829488	1808464
102	13432304	13431680
104	12940464	12940144
106	2653840	2653600
108	5395600	5395536
110	2277888	2277680
112	3275424	3274912
114	35751328	35749840
116	19742928	19741120
118	1767280	1766560
120	179760	179664
122	164368	164352
124	40208	40192
126	23264	23136
128	75392	75248
132	211616	211600
136	5488	5424
140	9232	9168
144	1360	1312
148	2848	2848
152	2912	2912
156	2128	2128
160	2160	2160
164	2096	2096
168	2768	2768
172	4288	4288
176	3152	3152
180	3648	3648
184	2832	2832
188	6384	6384
192	2336	2336
196	1264	1264
200	5216	5216
204	70816	70816
208	486720	486720
212	5056	5056
216	5968	5968
220	2784	2784
224	25584	25584
228	907376	907376
232	795536	795536
236	22592	22592
240	48	48
244	0	0
248	48	48
252	224	224
256	816	816
264	128	128
272	416	416
280	560	560
288	1536	1536
296	672	672
304	31456	31456
312	224496	224496
320	624	624
328	3312	3312
336	15040	15040
344	677968	677968
352	14496	14496
360	1248	1248
368	464	464
376	240	240
384	784	784
392	896	896
400	976	976
408	15216	15216
416	112448	112448
424	2528	2528
432	5024	5024
440	1104	1104
448	1408	1408
456	117840	117840
464	261056	261056
472	160	144
480	448	448
488	1904	1872
496	1248	1232
504	544	544
512	80848	80848
528	6256	6256
544	832	816
560	7328	7328
576	245984	245968
592	2384	2336
608	9072	9072
624	100720	100720
640	2032	1984
656	864	800
672	1616	1616
688	291840	291840
704	1488	1488
720	74064	74064
736	14256	14256
752	1152	1152
768	1040	1040
784	1520	1520
800	224112	224112
816	12640	12640
832	97088	97088
848	2160	2160
864	848	848
880	1152	1152
896	1472	1472
912	47472	47472
928	267552	267552
944	16128	16112
960	1632	1616
976	1136	1136
992	1456	1456
1008	816	816
1024	207696	207664
1056	2960	2960
1088	2544	2544
1120	34400	34368
1152	173376	173376
1184	2656	2656
1216	2560	2560
1248	189152	189152
1280	32432	32432
1312	2496	2480
1344	37568	37568
1376	168000	168000
1408	2784	2752
1440	43568	43552
1472	7904	7888
1504	108160	108160
1536	20976	20976
1568	35520	35520
1600	132496	132496
1632	4080	4064
1664	51360	51360
1696	1968	1968
1728	152112	152112
1760	47408	47408
1792	2512	2512
1824	11776	11776
1856	177936	177936
1888	14448	14448
1920	2000	2000
1952	129760	129760
1984	61872	61872
2016	1936	1936
2048	141728	141728
2112	4400	4400
2176	238944	238944
2240	25584	25584
2304	124208	124208
2368	24656	24656
2432	104592	104576
2496	117312	117312
2560	33120	33104
2624	74192	74192
2688	26304	26304
2752	81136	81136
2816	24096	24080
2880	86144	86112
2944	6768	6736
3008	86448	86448
3072	25680	25680
3136	63248	63248
3200	82768	82768
3264	5504	5504
3328	82192	82192
3392	15424	15424
3456	71952	71952
3520	21248	21216
3584	61328	61328
3648	21952	21952
3712	72464	72464
3776	65200	65200
3840	24992	24992
3904	58736	58736
3968	21616	21616
4032	70672	70672
4096	79760	79760
4224	76240	76240
4352	76304	76304
4480	85056	85056
4608	80192	80192
4736	75760	75712
4864	75040	75008
4992	121616	121616
5120	79792	79792
5248	75328	75328
5376	70656	70656
5504	69024	68992
5632	74624	74624
5760	72112	72112
5888	69424	69424
6016	65584	65584
6144	71840	71840
6272	107248	107248
6400	69728	69728
6528	63296	63248
6656	62400	62352
6784	71120	71120
6912	64384	64384
7040	63392	63376
7168	61328	61312
7296	64256	64256
7424	65680	65680
7552	96144	96112
7680	59392	59376
7808	57616	57616
7936	61536	61520
8064	59184	59168
8192	113216	113216
8448	112672	112624
8704	139136	139104
8960	111888	111856
9216	105536	105536
9472	106544	106528
9728	100656	100592
9984	127376	127376
10240	101152	101024
10496	96976	96960
10752	94624	94560
11008	92528	92480
11264	114688	114640
11520	88608	88576
11776	90416	90384
12032	85392	85344
12288	86016	86000
12544	103968	103904
12800	82288	82224
13056	83040	82976
13312	80880	80848
13568	79888	79872
13824	92560	92528
14080	76544	76528
14336	74576	74512
14592	72928	72896
14848	70976	70896
15104	83104	83056
15360	71504	71488
15616	67472	67408
15872	66576	66528
16128	66656	66560
16384	143952	143808
16896	127120	127040
17408	133296	133168
17920	118976	118864
18432	112736	112672
18944	121952	121872
19456	107504	107264
19968	110992	110960
20480	103168	103104
20992	100256	100176
21504	102752	102656
22016	90528	90432
22528	94080	94016
23040	82384	82288
23552	77920	77824
24064	82176	82160
24576	73312	73248
25088	77520	77440
25600	72224	72160
26112	70608	70528
26624	71712	71584
27136	65424	65264
27648	69824	69760
28160	65904	65760
28672	63664	63568
29184	66592	66496
29696	66720	66592
30208	67824	67712
30720	62624	62496
31232	62864	62784
31744	69728	69616
32256	63744	63680
32768	129824	129600
33792	123856	123600
34816	115024	114800
35840	105568	105424
36864	107584	107520
37888	106512	106432
38912	109520	109296
39936	97824	97696
40960	90688	90608
41984	88896	88752
43008	89104	89024
44032	82096	82000
45056	78368	78176
46080	78944	78848
47104	73360	73184
48128	80800	80592
49152	72000	71920
50176	76864	76704
51200	77568	77456
52224	80112	79968
53248	80880	80656
54272	88224	88144
55296	91824	91728
56320	88304	88256
57344	91424	91232
58368	92912	92736
59392	87184	86992
60416	85920	85744
61440	84080	83968
62464	71984	71792
63488	70784	70592
64512	73248	73104
65536	164176	163888
67584	169440	169200
69632	192416	192272
71680	178592	178256
73728	177856	177488
75776	177888	177760
77824	184880	184688
79872	184368	184112
81920	202736	202336
83968	194624	194320
86016	183856	183616
88064	173744	173520
90112	181312	181072
92160	177392	177232
94208	172368	172176
96256	164256	163984
98304	178800	178512
100352	182112	182032
102400	167088	166912
104448	154400	154160
106496	141824	141696
108544	131232	131072
110592	143472	143344
112640	127968	127840
114688	103984	103920
116736	86672	86640
118784	65104	65040
120832	52432	52416
122880	44960	44896
124928	36160	36112
126976	25760	25760
129024	27456	27408
131072	57168	57136
135168	45904	45808
139264	38304	38288
143360	37440	37424
147456	41488	41472
151552	18256	18256
155648	12304	12304
159744	12496	12496
163840	11056	11040
167936	6800	6800
172032	7552	7552
176128	9456	9456
180224	3872	3872
184320	3792	3792
188416	3600	3584
192512	3648	3648
196608	3344	3344
200704	2688	2688
204800	3248	3248
208896	3136	3136
212992	3104	3104
217088	2720	2720
221184	3712	3712
225280	3024	3024
229376	2208	2208
233472	2576	2576
237568	1648	1632
241664	1632	1632
245760	1504	1472
249856	1760	1760
253952	1760	1760
258048	1184	1184
262144	3184	3168
270336	3584	3584
278528	2496	2496
286720	2528	2528
294912	3024	3024
303104	2624	2624
311296	2496	2496
319488	1744	1744
327680	2080	2080
335872	2448	2448
344064	2576	2576
352256	1648	1648
360448	1184	1184
368640	1808	1808
376832	1744	1744
385024	1424	1424
393216	1536	1536
401408	1520	1520
409600	1504	1504
417792	1760	1760
425984	1280	1280
434176	1168	1168
442368	1376	1376
450560	1776	1776
458752	1408	1408
466944	1024	1024
475136	1264	1264
483328	864	864
491520	896	896
499712	1088	1072
507904	1248	1248
516096	896	880
524288	1776	1776
540672	1632	1600
557056	2000	2000
573440	1744	1744
589824	1632	1632
606208	1232	1232
622592	1392	1392
638976	1504	1504
655360	1376	1376
671744	1408	1408
688128	1104	1104
704512	1280	1264
720896	896	848
737280	1136	1136
753664	800	768
770048	1360	1344
786432	928	928
802816	720	720
819200	1168	1168
835584	816	816
851968	912	912
868352	1040	1040
884736	928	928
901120	720	688
917504	544	528
933888	512	496
950272	640	592
966656	720	720
983040	464	464
999424	368	368
1015808	720	704
1032192	704	704
1048576	1328	1280
1081344	1376	1376
1114112	1344	1344
1146880	1168	1168
1179648	1152	1104
1212416	1056	1056
1245184	816	800
1277952	1248	1232
1310720	928	848
1343488	864	864
1376256	864	784
1409024	640	640
1441792	672	656
1474560	624	624
1507328	624	560
1540096	672	640
1572864	640	640
1605632	336	336
1638400	512	480
1671168	704	704
1703936	608	608
1736704	416	400
1769472	640	608
1802240	544	544
1835008	496	496
1867776	320	320
1900544	608	592
1933312	368	368
1966080	384	384
1998848	544	528
2031616	464	464
2064384	544	544
2097152	688	624
2162688	688	672
2228224	656	656
2293760	688	688
2359296	512	512
2424832	496	448
2490368	784	784
2555904	720	704
2621440	576	576
2686976	544	512
2752512	528	528
2818048	480	480
2883584	608	608
2949120	656	624
3014656	496	496
3080192	384	384
3145728	400	400
3211264	480	432
3276800	320	288
3342336	352	352
3407872	368	336
3473408	352	320
3538944	400	400
3604480	304	304
3670016	336	336
3735552	304	304
3801088	336	288
3866624	256	256
3932160	192	192
3997696	224	224
4063232	128	128
4128768	320	320
4194304	576	560
4325376	480	480
4456448	480	464
4587520	560	544
4718592	416	416
4849664	544	480
4980736	288	288
5111808	528	448
5242880	208	208
5373952	224	224
5505024	288	256
5636096	256	256
5767168	256	176
5898240	320	320
6029312	176	176
6160384	128	128
6291456	96	96
6422528	144	144
6553600	176	176
6684672	240	240
6815744	288	224
6946816	128	128
7077888	256	144
7208960	112	112
7340032	160	160
7471104	128	48
7602176	128	128
7733248	224	224
7864320	48	48
7995392	224	176
8126464	112	112
8257536	80	80
8388608	480	320
8650752	320	288
8912896	480	480
9175040	272	240
9437184	288	208
9699328	208	192
9961472	336	288
10223616	192	144
10485760	368	352
10747904	272	272
11010048	256	256
11272192	448	448
11534336	128	128
11796480	288	288
12058624	272	224
12320768	128	128
12582912	128	128
12845056	128	128
13107200	144	128
13369344	176	176
13631488	96	64
13893632	112	112
14155776	288	288
14417920	144	112
14680064	144	144
14942208	80	80
15204352	144	144
15466496	112	112
15728640	192	192
15990784	128	128
16252928	112	112
16515072	128	128
16777216	272	272
17301504	192	144
17825792	112	112
18350080	288	240
18874368	384	384
19398656	224	208
19922944	160	160
20447232	352	336
20971520	256	192
21495808	112	112
22020096	208	208
22544384	208	176
23068672	256	256
23592960	160	160
24117248	96	64
24641536	240	240
25165824	272	192
25690112	80	80
26214400	656	656
26738688	272	272
27262976	16	16
27787264	80	80
28311552	32	32
28835840	80	32
29360128	176	112
29884416	64	64
30408704	80	80
30932992	48	48
31457280	96	96
31981568	0	0
32505856	16	16
33030144	48	48
33554432	128	128
34603008	128	128
35651584	288	288
36700160	128	128
37748736	112	112
38797312	80	80
39845888	112	112
40894464	160	160
41943040	48	48
42991616	64	64
44040192	32	32
45088768	64	64
46137344	32	32
47185920	0	0
48234496	32	32
49283072	32	32
50331648	64	64
51380224	0	0
52428800	32	32
53477376	48	48
54525952	16	16
55574528	0	0
56623104	0	0
57671680	16	16
58720256	64	64
59768832	0	0
60817408	32	32
61865984	0	0
62914560	16	16
63963136	0	0
65011712	0	0
66060288	16	16
67108864	112	112
69206016	128	128
71303168	80	80
73400320	144	144
75497472	48	48
77594624	208	208
79691776	64	64
81788928	32	32
83886080	64	64
85983232	48	48
88080384	192	192
90177536	0	0
92274688	0	0
94371840	0	0
96468992	48	48
98566144	80	80
100663296	0	0
102760448	0	0
104857600	0	0
106954752	16	16
109051904	0	0
111149056	208	208
113246208	0	0
115343360	16	16
117440512	0	0
119537664	0	0
121634816	0	0
123731968	0	0
125829120	0	0
127926272	0	0
130023424	0	0
132120576	0	0
134217728	0	0
138412032	0	0
142606336	0	0
146800640	0	0
150994944	0	0
155189248	0	0
159383552	0	0
163577856	368	368
167772160	240	240
171966464	16	16
176160768	0	0
180355072	0	0
184549376	48	48
188743680	0	0
192937984	0	0
197132288	64	64
201326592	0	0
205520896	0	0
209715200	0	0
213909504	0	0
218103808	0	0
222298112	0	0
226492416	0	0
230686720	192	192
234881024	48	48
239075328	0	0
243269632	0	0
247463936	0	0
251658240	0	0
255852544	0	0
260046848	48	48
264241152	112	112
268435456	352	352
276824064	32	32
285212672	0	0
293601280	0	0
301989888	0	0
310378496	0	0
318767104	0	0
327155712	0	0
335544320	0	0
343932928	0	0
352321536	0	0
360710144	0	0
369098752	0	0
377487360	0	0
385875968	0	0
394264576	0	0
402653184	192	192
411041792	16	16
419430400	0	0
427819008	32	32
436207616	368	368
444596224	64	64
452984832	0	0
461373440	0	0
469762048	0	0
478150656	0	0
486539264	0	0
494927872	0	0
503316480	0	0
511705088	0	0
520093696	0	0
528482304	0	0
536870912	0	0
553648128	0	0
570425344	0	0
587202560	0	0
603979776	0	0
620756992	0	0
637534208	0	0
654311424	0	0
671088640	0	0
687865856	0	0
704643072	0	0
721420288	0	0
738197504	0	0
754974720	0	0
771751936	0	0
788529152	0	0
805306368	0	0
822083584	0	0
838860800	0	0
855638016	0	0
872415232	0	0
889192448	0	0
905969664	0	0
922746880	0	0
939524096	0	0
956301312	0	0
973078528	0	0
989855744	0	0
1006632960	0	0
1023410176	0	0
1040187392	0	0
1056964608	0	0
1073741824	0	0
1107296256	0	0
1140850688	0	0
1174405120	0	0
1207959552	0	0
1241513984	0	0
1275068416	0	0
1308622848	0	0
1342177280	0	0
1375731712	0	0
1409286144	0	0
1442840576	0	0
1476395008	0	0
1509949440	0	0
1543503872	0	0
1577058304	0	0
1610612736	0	0
1644167168	0	0
1677721600	0	0
1711276032	0	0
1744830464	0	0
1778384896	0	0
1811939328	0	0
1845493760	0	0
1879048192	0	0
1912602624	0	0
1946157056	0	0
1979711488	0	0
2013265920	0	0
2046820352	0	0
2080374784	0	0
2113929216	0	0
2147483648	0	0
2214592512	0	0
2281701376	0	0
2348810240	0	0
2415919104	0	0
2483027968	0	0
2550136832	0	0
2617245696	0	0
2684354560	0	0
2751463424	0	0
2818572288	0	0
2885681152	0	0
2952790016	0	0
3019898880	0	0
3087007744	0	0
3154116608	0	0
3221225472	0	0
3288334336	0	0
3355443200	0	0
3422552064	0	0
3489660928	0	0
3556769792	0	0
3623878656	0	0
3690987520	0	0
3758096384	0	0
3825205248	0	0
3892314112	0	0
3959422976	0	0
4026531840	0	0
4093640704	0	0
4160749568	0	0
4227858432	0	0
~~~~~~~~~~Reuse Distance Profiler output end~~~~~~~~~~

DRAM Statistics
 CHANNEL 0
 RQ ROW_BUFFER_HIT:     165064  ROW_BUFFER_MISS:     128949
 DBUS AVG_CONGESTED_CYCLE:    3.69544
 WQ ROW_BUFFER_HIT:        149  ROW_BUFFER_MISS:       7207  FULL:          0


CPU 0 Branch Prediction Accuracy: 94.2243% MPKI: 5.59293 Average ROB Occupancy at Mispredict: 134.419
Branch type MPKI
BRANCH_DIRECT_JUMP: 1.33333e-06
BRANCH_INDIRECT: 0
BRANCH_CONDITIONAL: 5.59293
BRANCH_DIRECT_CALL: 6.66667e-07
BRANCH_INDIRECT_CALL: 0
BRANCH_RETURN: 2e-06

