
*** ChampSim Multicore Out-of-Order Simulator ***

Warmup Instructions: 500000000
Simulation Instructions: 1500000000
Number of CPUs: 1
Off-chip DRAM Size: 4 GiB Channels: 1 Width: 64-bit Data Rate: 3200 MT/s

VirtualMemory physical capacity: 8588881920 num_ppages: 2096895
VirtualMemory page size: 4096 log2_page_size: 12

CPU 0 runs traces/644.nab_s-12521B.champsimtrace.xz
CPU 0 Bimodal branch predictor
Basic BTB sets: 1024 ways: 8 indirect buffer size: 4096 RAS size: 64
Initializing LRU.
Initializing LRU.
Initializing LRU.
Initializing LRU.
Initializing rdLRU.
Initializing LRU.
Initializing LRU.
Heartbeat CPU 0 instructions: 10000002 cycles: 2934347 heartbeat IPC: 3.40791 cumulative IPC: 3.40791 (Simulation time: 0 hr 1 min 9 sec) 
Heartbeat CPU 0 instructions: 20000000 cycles: 5868388 heartbeat IPC: 3.40827 cumulative IPC: 3.40809 (Simulation time: 0 hr 2 min 19 sec) 
Heartbeat CPU 0 instructions: 30000003 cycles: 8802625 heartbeat IPC: 3.40804 cumulative IPC: 3.40807 (Simulation time: 0 hr 3 min 34 sec) 
Heartbeat CPU 0 instructions: 40000002 cycles: 11736454 heartbeat IPC: 3.40851 cumulative IPC: 3.40818 (Simulation time: 0 hr 4 min 47 sec) 
Heartbeat CPU 0 instructions: 50000000 cycles: 14671040 heartbeat IPC: 3.40763 cumulative IPC: 3.40807 (Simulation time: 0 hr 5 min 57 sec) 
Heartbeat CPU 0 instructions: 60000002 cycles: 17604208 heartbeat IPC: 3.40928 cumulative IPC: 3.40828 (Simulation time: 0 hr 7 min 9 sec) 
Heartbeat CPU 0 instructions: 70000004 cycles: 20538326 heartbeat IPC: 3.40818 cumulative IPC: 3.40826 (Simulation time: 0 hr 8 min 20 sec) 
Heartbeat CPU 0 instructions: 80000001 cycles: 23472748 heartbeat IPC: 3.40783 cumulative IPC: 3.40821 (Simulation time: 0 hr 9 min 32 sec) 
Heartbeat CPU 0 instructions: 90000000 cycles: 26405737 heartbeat IPC: 3.40949 cumulative IPC: 3.40835 (Simulation time: 0 hr 10 min 43 sec) 
Heartbeat CPU 0 instructions: 100000002 cycles: 29337851 heartbeat IPC: 3.41051 cumulative IPC: 3.40857 (Simulation time: 0 hr 11 min 51 sec) 
Heartbeat CPU 0 instructions: 110000003 cycles: 32272398 heartbeat IPC: 3.40768 cumulative IPC: 3.40849 (Simulation time: 0 hr 13 min 1 sec) 
Heartbeat CPU 0 instructions: 120000004 cycles: 35207012 heartbeat IPC: 3.4076 cumulative IPC: 3.40841 (Simulation time: 0 hr 14 min 9 sec) 
Heartbeat CPU 0 instructions: 130000001 cycles: 38141434 heartbeat IPC: 3.40783 cumulative IPC: 3.40837 (Simulation time: 0 hr 15 min 19 sec) 
Heartbeat CPU 0 instructions: 140000004 cycles: 41075701 heartbeat IPC: 3.40801 cumulative IPC: 3.40834 (Simulation time: 0 hr 16 min 33 sec) 
Heartbeat CPU 0 instructions: 150000000 cycles: 44008721 heartbeat IPC: 3.40945 cumulative IPC: 3.40842 (Simulation time: 0 hr 17 min 45 sec) 
Heartbeat CPU 0 instructions: 160000003 cycles: 46939848 heartbeat IPC: 3.41166 cumulative IPC: 3.40862 (Simulation time: 0 hr 18 min 55 sec) 
Heartbeat CPU 0 instructions: 170000003 cycles: 49873505 heartbeat IPC: 3.40871 cumulative IPC: 3.40862 (Simulation time: 0 hr 20 min 8 sec) 
Heartbeat CPU 0 instructions: 180000000 cycles: 52808200 heartbeat IPC: 3.40751 cumulative IPC: 3.40856 (Simulation time: 0 hr 21 min 20 sec) 
Heartbeat CPU 0 instructions: 190000003 cycles: 55742178 heartbeat IPC: 3.40834 cumulative IPC: 3.40855 (Simulation time: 0 hr 22 min 27 sec) 
Heartbeat CPU 0 instructions: 200000003 cycles: 58676498 heartbeat IPC: 3.40794 cumulative IPC: 3.40852 (Simulation time: 0 hr 23 min 35 sec) 
Heartbeat CPU 0 instructions: 210000001 cycles: 61611053 heartbeat IPC: 3.40767 cumulative IPC: 3.40848 (Simulation time: 0 hr 24 min 43 sec) 
Heartbeat CPU 0 instructions: 220000003 cycles: 64544583 heartbeat IPC: 3.40886 cumulative IPC: 3.4085 (Simulation time: 0 hr 25 min 41 sec) 
Heartbeat CPU 0 instructions: 230000002 cycles: 67479136 heartbeat IPC: 3.40767 cumulative IPC: 3.40846 (Simulation time: 0 hr 26 min 49 sec) 
Heartbeat CPU 0 instructions: 240000002 cycles: 70413402 heartbeat IPC: 3.40801 cumulative IPC: 3.40844 (Simulation time: 0 hr 28 min 1 sec) 
Heartbeat CPU 0 instructions: 250000001 cycles: 73346816 heartbeat IPC: 3.409 cumulative IPC: 3.40846 (Simulation time: 0 hr 29 min 5 sec) 
Heartbeat CPU 0 instructions: 260000003 cycles: 76280358 heartbeat IPC: 3.40885 cumulative IPC: 3.40848 (Simulation time: 0 hr 30 min 16 sec) 
Heartbeat CPU 0 instructions: 270000000 cycles: 79211850 heartbeat IPC: 3.41123 cumulative IPC: 3.40858 (Simulation time: 0 hr 31 min 23 sec) 
Heartbeat CPU 0 instructions: 280000003 cycles: 82144058 heartbeat IPC: 3.4104 cumulative IPC: 3.40865 (Simulation time: 0 hr 32 min 29 sec) 
Heartbeat CPU 0 instructions: 290000004 cycles: 85075604 heartbeat IPC: 3.41117 cumulative IPC: 3.40873 (Simulation time: 0 hr 33 min 41 sec) 
Heartbeat CPU 0 instructions: 300000003 cycles: 88008804 heartbeat IPC: 3.40925 cumulative IPC: 3.40875 (Simulation time: 0 hr 34 min 52 sec) 
Heartbeat CPU 0 instructions: 310000002 cycles: 90942912 heartbeat IPC: 3.40819 cumulative IPC: 3.40873 (Simulation time: 0 hr 36 min 6 sec) 
Heartbeat CPU 0 instructions: 320000003 cycles: 93876794 heartbeat IPC: 3.40845 cumulative IPC: 3.40872 (Simulation time: 0 hr 37 min 12 sec) 
Heartbeat CPU 0 instructions: 330000002 cycles: 96809582 heartbeat IPC: 3.40972 cumulative IPC: 3.40875 (Simulation time: 0 hr 38 min 19 sec) 
Heartbeat CPU 0 instructions: 340000004 cycles: 99740750 heartbeat IPC: 3.41161 cumulative IPC: 3.40884 (Simulation time: 0 hr 39 min 23 sec) 
Heartbeat CPU 0 instructions: 350000002 cycles: 102674952 heartbeat IPC: 3.40808 cumulative IPC: 3.40882 (Simulation time: 0 hr 40 min 31 sec) 
Heartbeat CPU 0 instructions: 360000003 cycles: 105609233 heartbeat IPC: 3.40799 cumulative IPC: 3.40879 (Simulation time: 0 hr 41 min 38 sec) 
Heartbeat CPU 0 instructions: 370000001 cycles: 108542435 heartbeat IPC: 3.40924 cumulative IPC: 3.40881 (Simulation time: 0 hr 42 min 46 sec) 
Heartbeat CPU 0 instructions: 380000000 cycles: 111473204 heartbeat IPC: 3.41207 cumulative IPC: 3.40889 (Simulation time: 0 hr 43 min 43 sec) 
Heartbeat CPU 0 instructions: 390000000 cycles: 114407117 heartbeat IPC: 3.40842 cumulative IPC: 3.40888 (Simulation time: 0 hr 44 min 54 sec) 
Heartbeat CPU 0 instructions: 400000002 cycles: 117341269 heartbeat IPC: 3.40814 cumulative IPC: 3.40886 (Simulation time: 0 hr 46 min 1 sec) 
Heartbeat CPU 0 instructions: 410000004 cycles: 120275596 heartbeat IPC: 3.40794 cumulative IPC: 3.40884 (Simulation time: 0 hr 47 min 12 sec) 
Heartbeat CPU 0 instructions: 420000002 cycles: 123210006 heartbeat IPC: 3.40784 cumulative IPC: 3.40881 (Simulation time: 0 hr 48 min 25 sec) 
Heartbeat CPU 0 instructions: 430000000 cycles: 126144485 heartbeat IPC: 3.40776 cumulative IPC: 3.40879 (Simulation time: 0 hr 49 min 32 sec) 
Heartbeat CPU 0 instructions: 440000002 cycles: 129078563 heartbeat IPC: 3.40823 cumulative IPC: 3.40878 (Simulation time: 0 hr 50 min 40 sec) 
Heartbeat CPU 0 instructions: 450000000 cycles: 132010780 heartbeat IPC: 3.41039 cumulative IPC: 3.40881 (Simulation time: 0 hr 51 min 51 sec) 
Heartbeat CPU 0 instructions: 460000003 cycles: 134941053 heartbeat IPC: 3.41265 cumulative IPC: 3.4089 (Simulation time: 0 hr 53 min 1 sec) 
Heartbeat CPU 0 instructions: 470000001 cycles: 137873920 heartbeat IPC: 3.40963 cumulative IPC: 3.40891 (Simulation time: 0 hr 54 min 14 sec) 
Heartbeat CPU 0 instructions: 480000004 cycles: 140830237 heartbeat IPC: 3.38259 cumulative IPC: 3.40836 (Simulation time: 0 hr 55 min 19 sec) 
Heartbeat CPU 0 instructions: 490000001 cycles: 143556664 heartbeat IPC: 3.6678 cumulative IPC: 3.41329 (Simulation time: 0 hr 56 min 15 sec) 
Heartbeat CPU 0 instructions: 500000001 cycles: 146056664 heartbeat IPC: 4 cumulative IPC: 3.42333 (Simulation time: 0 hr 57 min 7 sec) 

Warmup complete CPU 0 instructions: 500000001 cycles: 146056664 (Simulation time: 0 hr 57 min 7 sec) 

Heartbeat CPU 0 instructions: 510000001 cycles: 154624684 heartbeat IPC: 1.16713 cumulative IPC: 1.16713 (Simulation time: 0 hr 58 min 46 sec) 
Heartbeat CPU 0 instructions: 520000004 cycles: 163234828 heartbeat IPC: 1.16142 cumulative IPC: 1.16427 (Simulation time: 1 hr 0 min 16 sec) 
Heartbeat CPU 0 instructions: 530000003 cycles: 172404122 heartbeat IPC: 1.0906 cumulative IPC: 1.13863 (Simulation time: 1 hr 1 min 53 sec) 
Heartbeat CPU 0 instructions: 540000001 cycles: 180639076 heartbeat IPC: 1.21434 cumulative IPC: 1.15666 (Simulation time: 1 hr 3 min 28 sec) 
Heartbeat CPU 0 instructions: 550000002 cycles: 185405935 heartbeat IPC: 2.09782 cumulative IPC: 1.27067 (Simulation time: 1 hr 4 min 39 sec) 
Heartbeat CPU 0 instructions: 560000003 cycles: 190165883 heartbeat IPC: 2.10086 cumulative IPC: 1.36026 (Simulation time: 1 hr 5 min 54 sec) 
Heartbeat CPU 0 instructions: 570000002 cycles: 194927382 heartbeat IPC: 2.10018 cumulative IPC: 1.43235 (Simulation time: 1 hr 7 min 4 sec) 
Heartbeat CPU 0 instructions: 580000002 cycles: 199705205 heartbeat IPC: 2.093 cumulative IPC: 1.49119 (Simulation time: 1 hr 8 min 17 sec) 
Heartbeat CPU 0 instructions: 590000000 cycles: 204455830 heartbeat IPC: 2.10499 cumulative IPC: 1.54112 (Simulation time: 1 hr 9 min 34 sec) 
Heartbeat CPU 0 instructions: 600000003 cycles: 210339217 heartbeat IPC: 1.6997 cumulative IPC: 1.55563 (Simulation time: 1 hr 11 min 4 sec) 
Heartbeat CPU 0 instructions: 610000000 cycles: 215702708 heartbeat IPC: 1.86446 cumulative IPC: 1.57941 (Simulation time: 1 hr 12 min 20 sec) 
Heartbeat CPU 0 instructions: 620000003 cycles: 221159178 heartbeat IPC: 1.83269 cumulative IPC: 1.59782 (Simulation time: 1 hr 13 min 31 sec) 
Heartbeat CPU 0 instructions: 630000004 cycles: 226650071 heartbeat IPC: 1.8212 cumulative IPC: 1.61304 (Simulation time: 1 hr 14 min 43 sec) 
Heartbeat CPU 0 instructions: 640000001 cycles: 232152266 heartbeat IPC: 1.81746 cumulative IPC: 1.6261 (Simulation time: 1 hr 15 min 55 sec) 
Heartbeat CPU 0 instructions: 650000000 cycles: 239727236 heartbeat IPC: 1.32014 cumulative IPC: 1.60136 (Simulation time: 1 hr 17 min 6 sec) 
Heartbeat CPU 0 instructions: 660000002 cycles: 253319782 heartbeat IPC: 0.735698 cumulative IPC: 1.49166 (Simulation time: 1 hr 18 min 49 sec) 
Heartbeat CPU 0 instructions: 670000002 cycles: 266924799 heartbeat IPC: 0.735023 cumulative IPC: 1.40649 (Simulation time: 1 hr 20 min 29 sec) 
Heartbeat CPU 0 instructions: 680000004 cycles: 273453796 heartbeat IPC: 1.53163 cumulative IPC: 1.4129 (Simulation time: 1 hr 21 min 36 sec) 
Heartbeat CPU 0 instructions: 690000000 cycles: 278637776 heartbeat IPC: 1.92902 cumulative IPC: 1.43308 (Simulation time: 1 hr 22 min 53 sec) 
Heartbeat CPU 0 instructions: 700000001 cycles: 283892166 heartbeat IPC: 1.90317 cumulative IPC: 1.451 (Simulation time: 1 hr 24 min 18 sec) 
Heartbeat CPU 0 instructions: 710000000 cycles: 289216526 heartbeat IPC: 1.87816 cumulative IPC: 1.46689 (Simulation time: 1 hr 25 min 33 sec) 
Heartbeat CPU 0 instructions: 720000001 cycles: 294505072 heartbeat IPC: 1.89088 cumulative IPC: 1.482 (Simulation time: 1 hr 26 min 56 sec) 
Heartbeat CPU 0 instructions: 730000004 cycles: 299760507 heartbeat IPC: 1.90279 cumulative IPC: 1.49638 (Simulation time: 1 hr 28 min 23 sec) 
Heartbeat CPU 0 instructions: 740000004 cycles: 304994189 heartbeat IPC: 1.9107 cumulative IPC: 1.51003 (Simulation time: 1 hr 29 min 38 sec) 
Heartbeat CPU 0 instructions: 750000000 cycles: 310174979 heartbeat IPC: 1.93021 cumulative IPC: 1.52329 (Simulation time: 1 hr 31 min 3 sec) 
Heartbeat CPU 0 instructions: 760000003 cycles: 315349436 heartbeat IPC: 1.93257 cumulative IPC: 1.5358 (Simulation time: 1 hr 32 min 40 sec) 
Heartbeat CPU 0 instructions: 770000000 cycles: 320523586 heartbeat IPC: 1.93268 cumulative IPC: 1.54757 (Simulation time: 1 hr 33 min 57 sec) 
Heartbeat CPU 0 instructions: 780000000 cycles: 325650722 heartbeat IPC: 1.95041 cumulative IPC: 1.55907 (Simulation time: 1 hr 35 min 23 sec) 
Heartbeat CPU 0 instructions: 790000004 cycles: 330784304 heartbeat IPC: 1.94796 cumulative IPC: 1.56988 (Simulation time: 1 hr 37 min 4 sec) 
Heartbeat CPU 0 instructions: 800000001 cycles: 335914341 heartbeat IPC: 1.9493 cumulative IPC: 1.58013 (Simulation time: 1 hr 38 min 37 sec) 
Heartbeat CPU 0 instructions: 810000003 cycles: 341060975 heartbeat IPC: 1.94302 cumulative IPC: 1.58971 (Simulation time: 1 hr 39 min 43 sec) 
Heartbeat CPU 0 instructions: 820000000 cycles: 346215922 heartbeat IPC: 1.93988 cumulative IPC: 1.59873 (Simulation time: 1 hr 40 min 59 sec) 
Heartbeat CPU 0 instructions: 830000003 cycles: 351384351 heartbeat IPC: 1.93482 cumulative IPC: 1.60719 (Simulation time: 1 hr 42 min 30 sec) 
Heartbeat CPU 0 instructions: 840000000 cycles: 356539534 heartbeat IPC: 1.93979 cumulative IPC: 1.61533 (Simulation time: 1 hr 43 min 41 sec) 
Heartbeat CPU 0 instructions: 850000001 cycles: 361682378 heartbeat IPC: 1.94445 cumulative IPC: 1.62318 (Simulation time: 1 hr 45 min 15 sec) 
Heartbeat CPU 0 instructions: 860000004 cycles: 366834861 heartbeat IPC: 1.94081 cumulative IPC: 1.6306 (Simulation time: 1 hr 46 min 37 sec) 
Heartbeat CPU 0 instructions: 870000000 cycles: 372004232 heartbeat IPC: 1.93447 cumulative IPC: 1.63755 (Simulation time: 1 hr 48 min 0 sec) 
Heartbeat CPU 0 instructions: 880000000 cycles: 377169031 heartbeat IPC: 1.93618 cumulative IPC: 1.64422 (Simulation time: 1 hr 49 min 35 sec) 
Heartbeat CPU 0 instructions: 890000003 cycles: 382353549 heartbeat IPC: 1.92882 cumulative IPC: 1.65047 (Simulation time: 1 hr 51 min 7 sec) 
Heartbeat CPU 0 instructions: 900000000 cycles: 387528226 heartbeat IPC: 1.93249 cumulative IPC: 1.65651 (Simulation time: 1 hr 52 min 33 sec) 
Heartbeat CPU 0 instructions: 910000002 cycles: 392704111 heartbeat IPC: 1.93204 cumulative IPC: 1.66229 (Simulation time: 1 hr 53 min 39 sec) 
Heartbeat CPU 0 instructions: 920000000 cycles: 397873111 heartbeat IPC: 1.93461 cumulative IPC: 1.66788 (Simulation time: 1 hr 55 min 17 sec) 
Heartbeat CPU 0 instructions: 930000004 cycles: 403012856 heartbeat IPC: 1.94562 cumulative IPC: 1.67344 (Simulation time: 1 hr 56 min 56 sec) 
Heartbeat CPU 0 instructions: 940000000 cycles: 408173674 heartbeat IPC: 1.93768 cumulative IPC: 1.67864 (Simulation time: 1 hr 58 min 32 sec) 
Heartbeat CPU 0 instructions: 950000000 cycles: 413308985 heartbeat IPC: 1.9473 cumulative IPC: 1.6838 (Simulation time: 2 hr 0 min 10 sec) 
Heartbeat CPU 0 instructions: 960000004 cycles: 418429643 heartbeat IPC: 1.95287 cumulative IPC: 1.68886 (Simulation time: 2 hr 1 min 48 sec) 
Heartbeat CPU 0 instructions: 970000000 cycles: 423549820 heartbeat IPC: 1.95306 cumulative IPC: 1.69374 (Simulation time: 2 hr 3 min 6 sec) 
Heartbeat CPU 0 instructions: 980000004 cycles: 428702753 heartbeat IPC: 1.94064 cumulative IPC: 1.69824 (Simulation time: 2 hr 4 min 42 sec) 
Heartbeat CPU 0 instructions: 990000001 cycles: 433845658 heartbeat IPC: 1.94443 cumulative IPC: 1.70264 (Simulation time: 2 hr 6 min 18 sec) 
Heartbeat CPU 0 instructions: 1000000003 cycles: 438973812 heartbeat IPC: 1.95002 cumulative IPC: 1.70697 (Simulation time: 2 hr 7 min 51 sec) 
Heartbeat CPU 0 instructions: 1010000001 cycles: 444142231 heartbeat IPC: 1.93483 cumulative IPC: 1.71092 (Simulation time: 2 hr 9 min 4 sec) 
Heartbeat CPU 0 instructions: 1020000000 cycles: 449284252 heartbeat IPC: 1.94476 cumulative IPC: 1.71488 (Simulation time: 2 hr 10 min 41 sec) 
Heartbeat CPU 0 instructions: 1030000004 cycles: 454447257 heartbeat IPC: 1.93686 cumulative IPC: 1.7186 (Simulation time: 2 hr 11 min 56 sec) 
Heartbeat CPU 0 instructions: 1040000001 cycles: 459614205 heartbeat IPC: 1.93538 cumulative IPC: 1.72217 (Simulation time: 2 hr 13 min 18 sec) 
Heartbeat CPU 0 instructions: 1050000002 cycles: 464785936 heartbeat IPC: 1.93359 cumulative IPC: 1.7256 (Simulation time: 2 hr 14 min 33 sec) 
Heartbeat CPU 0 instructions: 1060000004 cycles: 469976004 heartbeat IPC: 1.92676 cumulative IPC: 1.72883 (Simulation time: 2 hr 16 min 1 sec) 
Heartbeat CPU 0 instructions: 1070000004 cycles: 475222577 heartbeat IPC: 1.90601 cumulative IPC: 1.73165 (Simulation time: 2 hr 17 min 18 sec) 
Heartbeat CPU 0 instructions: 1080000000 cycles: 480472513 heartbeat IPC: 1.90478 cumulative IPC: 1.73437 (Simulation time: 2 hr 18 min 29 sec) 
Heartbeat CPU 0 instructions: 1090000002 cycles: 485692157 heartbeat IPC: 1.91584 cumulative IPC: 1.73716 (Simulation time: 2 hr 19 min 35 sec) 
Heartbeat CPU 0 instructions: 1100000000 cycles: 490950191 heartbeat IPC: 1.90185 cumulative IPC: 1.73967 (Simulation time: 2 hr 21 min 7 sec) 
Heartbeat CPU 0 instructions: 1110000004 cycles: 496146934 heartbeat IPC: 1.92428 cumulative IPC: 1.74241 (Simulation time: 2 hr 22 min 29 sec) 
Heartbeat CPU 0 instructions: 1120000003 cycles: 501353796 heartbeat IPC: 1.92054 cumulative IPC: 1.74502 (Simulation time: 2 hr 23 min 59 sec) 
Heartbeat CPU 0 instructions: 1130000001 cycles: 506587591 heartbeat IPC: 1.91066 cumulative IPC: 1.74742 (Simulation time: 2 hr 25 min 33 sec) 
Heartbeat CPU 0 instructions: 1140000003 cycles: 511827044 heartbeat IPC: 1.9086 cumulative IPC: 1.74973 (Simulation time: 2 hr 26 min 57 sec) 
Heartbeat CPU 0 instructions: 1150000001 cycles: 516998473 heartbeat IPC: 1.9337 cumulative IPC: 1.7523 (Simulation time: 2 hr 28 min 31 sec) 
Heartbeat CPU 0 instructions: 1160000000 cycles: 522215041 heartbeat IPC: 1.91697 cumulative IPC: 1.75458 (Simulation time: 2 hr 30 min 10 sec) 
Heartbeat CPU 0 instructions: 1170000000 cycles: 527403608 heartbeat IPC: 1.92731 cumulative IPC: 1.75693 (Simulation time: 2 hr 31 min 15 sec) 
Heartbeat CPU 0 instructions: 1180000003 cycles: 532578817 heartbeat IPC: 1.93229 cumulative IPC: 1.75928 (Simulation time: 2 hr 32 min 30 sec) 
Heartbeat CPU 0 instructions: 1190000000 cycles: 537806168 heartbeat IPC: 1.91301 cumulative IPC: 1.76133 (Simulation time: 2 hr 33 min 25 sec) 
Heartbeat CPU 0 instructions: 1200000004 cycles: 542952355 heartbeat IPC: 1.94319 cumulative IPC: 1.76369 (Simulation time: 2 hr 34 min 19 sec) 
Heartbeat CPU 0 instructions: 1210000001 cycles: 548156712 heartbeat IPC: 1.92147 cumulative IPC: 1.76573 (Simulation time: 2 hr 35 min 21 sec) 
Heartbeat CPU 0 instructions: 1220000004 cycles: 553337669 heartbeat IPC: 1.93015 cumulative IPC: 1.76782 (Simulation time: 2 hr 36 min 21 sec) 
Heartbeat CPU 0 instructions: 1230000004 cycles: 558509454 heartbeat IPC: 1.93357 cumulative IPC: 1.7699 (Simulation time: 2 hr 37 min 16 sec) 
Heartbeat CPU 0 instructions: 1240000001 cycles: 563709856 heartbeat IPC: 1.92293 cumulative IPC: 1.7718 (Simulation time: 2 hr 38 min 33 sec) 
Heartbeat CPU 0 instructions: 1250000003 cycles: 569033927 heartbeat IPC: 1.87826 cumulative IPC: 1.77314 (Simulation time: 2 hr 40 min 12 sec) 
Heartbeat CPU 0 instructions: 1260000003 cycles: 574277065 heartbeat IPC: 1.90725 cumulative IPC: 1.77479 (Simulation time: 2 hr 41 min 50 sec) 
Heartbeat CPU 0 instructions: 1270000003 cycles: 579450509 heartbeat IPC: 1.93295 cumulative IPC: 1.77667 (Simulation time: 2 hr 42 min 46 sec) 
Heartbeat CPU 0 instructions: 1280000000 cycles: 584697854 heartbeat IPC: 1.90573 cumulative IPC: 1.77822 (Simulation time: 2 hr 43 min 41 sec) 
Heartbeat CPU 0 instructions: 1290000000 cycles: 589874280 heartbeat IPC: 1.93183 cumulative IPC: 1.78001 (Simulation time: 2 hr 44 min 35 sec) 
Heartbeat CPU 0 instructions: 1300000003 cycles: 595060321 heartbeat IPC: 1.92825 cumulative IPC: 1.78172 (Simulation time: 2 hr 45 min 43 sec) 
Heartbeat CPU 0 instructions: 1310000001 cycles: 600216094 heartbeat IPC: 1.93957 cumulative IPC: 1.78351 (Simulation time: 2 hr 47 min 6 sec) 
Heartbeat CPU 0 instructions: 1320000001 cycles: 605375840 heartbeat IPC: 1.93808 cumulative IPC: 1.78525 (Simulation time: 2 hr 48 min 0 sec) 
Heartbeat CPU 0 instructions: 1330000001 cycles: 610575560 heartbeat IPC: 1.92318 cumulative IPC: 1.78679 (Simulation time: 2 hr 49 min 6 sec) 
Heartbeat CPU 0 instructions: 1340000002 cycles: 615782171 heartbeat IPC: 1.92064 cumulative IPC: 1.78828 (Simulation time: 2 hr 50 min 0 sec) 
Heartbeat CPU 0 instructions: 1350000002 cycles: 620967999 heartbeat IPC: 1.92833 cumulative IPC: 1.78981 (Simulation time: 2 hr 50 min 53 sec) 
Heartbeat CPU 0 instructions: 1360000000 cycles: 626134017 heartbeat IPC: 1.93573 cumulative IPC: 1.79138 (Simulation time: 2 hr 51 min 49 sec) 
Heartbeat CPU 0 instructions: 1370000001 cycles: 631349609 heartbeat IPC: 1.91733 cumulative IPC: 1.79273 (Simulation time: 2 hr 52 min 48 sec) 
Heartbeat CPU 0 instructions: 1380000001 cycles: 636509195 heartbeat IPC: 1.93814 cumulative IPC: 1.79426 (Simulation time: 2 hr 53 min 45 sec) 
Heartbeat CPU 0 instructions: 1390000002 cycles: 641688179 heartbeat IPC: 1.93088 cumulative IPC: 1.79569 (Simulation time: 2 hr 54 min 38 sec) 
Heartbeat CPU 0 instructions: 1400000001 cycles: 646827735 heartbeat IPC: 1.94569 cumulative IPC: 1.79723 (Simulation time: 2 hr 55 min 31 sec) 
Heartbeat CPU 0 instructions: 1410000001 cycles: 651990984 heartbeat IPC: 1.93676 cumulative IPC: 1.79865 (Simulation time: 2 hr 56 min 23 sec) 
Heartbeat CPU 0 instructions: 1420000002 cycles: 657158905 heartbeat IPC: 1.93501 cumulative IPC: 1.80003 (Simulation time: 2 hr 57 min 17 sec) 
Heartbeat CPU 0 instructions: 1430000004 cycles: 662319562 heartbeat IPC: 1.93774 cumulative IPC: 1.80141 (Simulation time: 2 hr 58 min 9 sec) 
Heartbeat CPU 0 instructions: 1440000000 cycles: 667489041 heartbeat IPC: 1.93443 cumulative IPC: 1.80273 (Simulation time: 2 hr 59 min 2 sec) 
Heartbeat CPU 0 instructions: 1450000000 cycles: 672676076 heartbeat IPC: 1.92788 cumulative IPC: 1.80396 (Simulation time: 2 hr 59 min 55 sec) 
Heartbeat CPU 0 instructions: 1460000001 cycles: 677816172 heartbeat IPC: 1.94549 cumulative IPC: 1.80533 (Simulation time: 3 hr 0 min 48 sec) 
Heartbeat CPU 0 instructions: 1470000000 cycles: 682976878 heartbeat IPC: 1.93772 cumulative IPC: 1.8066 (Simulation time: 3 hr 1 min 41 sec) 
Heartbeat CPU 0 instructions: 1480000000 cycles: 688132382 heartbeat IPC: 1.93967 cumulative IPC: 1.80787 (Simulation time: 3 hr 2 min 34 sec) 
Heartbeat CPU 0 instructions: 1490000004 cycles: 693320188 heartbeat IPC: 1.9276 cumulative IPC: 1.809 (Simulation time: 3 hr 3 min 27 sec) 
Heartbeat CPU 0 instructions: 1500000000 cycles: 698542803 heartbeat IPC: 1.91475 cumulative IPC: 1.81 (Simulation time: 3 hr 4 min 20 sec) 
Heartbeat CPU 0 instructions: 1510000000 cycles: 703757910 heartbeat IPC: 1.91751 cumulative IPC: 1.81101 (Simulation time: 3 hr 5 min 14 sec) 
Heartbeat CPU 0 instructions: 1520000003 cycles: 708954758 heartbeat IPC: 1.92424 cumulative IPC: 1.81205 (Simulation time: 3 hr 6 min 7 sec) 
Heartbeat CPU 0 instructions: 1530000000 cycles: 714264568 heartbeat IPC: 1.88331 cumulative IPC: 1.81272 (Simulation time: 3 hr 7 min 0 sec) 
Heartbeat CPU 0 instructions: 1540000000 cycles: 719530362 heartbeat IPC: 1.89905 cumulative IPC: 1.81351 (Simulation time: 3 hr 7 min 53 sec) 
Heartbeat CPU 0 instructions: 1550000001 cycles: 724751418 heartbeat IPC: 1.91532 cumulative IPC: 1.81443 (Simulation time: 3 hr 8 min 47 sec) 
Heartbeat CPU 0 instructions: 1560000004 cycles: 729956452 heartbeat IPC: 1.92122 cumulative IPC: 1.81538 (Simulation time: 3 hr 9 min 41 sec) 
Heartbeat CPU 0 instructions: 1570000001 cycles: 735174080 heartbeat IPC: 1.91658 cumulative IPC: 1.81628 (Simulation time: 3 hr 10 min 33 sec) 
Heartbeat CPU 0 instructions: 1580000003 cycles: 740374332 heartbeat IPC: 1.92298 cumulative IPC: 1.81721 (Simulation time: 3 hr 11 min 26 sec) 
Heartbeat CPU 0 instructions: 1590000001 cycles: 745546537 heartbeat IPC: 1.93341 cumulative IPC: 1.81821 (Simulation time: 3 hr 12 min 20 sec) 
Heartbeat CPU 0 instructions: 1600000003 cycles: 750742053 heartbeat IPC: 1.92474 cumulative IPC: 1.81913 (Simulation time: 3 hr 13 min 13 sec) 
Heartbeat CPU 0 instructions: 1610000002 cycles: 755911698 heartbeat IPC: 1.93437 cumulative IPC: 1.8201 (Simulation time: 3 hr 14 min 5 sec) 
Heartbeat CPU 0 instructions: 1620000001 cycles: 761067420 heartbeat IPC: 1.93959 cumulative IPC: 1.82111 (Simulation time: 3 hr 14 min 58 sec) 
Heartbeat CPU 0 instructions: 1630000000 cycles: 766285692 heartbeat IPC: 1.91634 cumulative IPC: 1.82191 (Simulation time: 3 hr 15 min 52 sec) 
Heartbeat CPU 0 instructions: 1640000000 cycles: 771470781 heartbeat IPC: 1.92861 cumulative IPC: 1.82279 (Simulation time: 3 hr 16 min 45 sec) 
Heartbeat CPU 0 instructions: 1650000002 cycles: 776706038 heartbeat IPC: 1.91013 cumulative IPC: 1.82352 (Simulation time: 3 hr 17 min 39 sec) 
Heartbeat CPU 0 instructions: 1660000001 cycles: 781924740 heartbeat IPC: 1.91619 cumulative IPC: 1.82428 (Simulation time: 3 hr 18 min 33 sec) 
Heartbeat CPU 0 instructions: 1670000003 cycles: 787145977 heartbeat IPC: 1.91526 cumulative IPC: 1.82502 (Simulation time: 3 hr 19 min 27 sec) 
Heartbeat CPU 0 instructions: 1680000003 cycles: 792329008 heartbeat IPC: 1.92937 cumulative IPC: 1.82586 (Simulation time: 3 hr 20 min 20 sec) 
Heartbeat CPU 0 instructions: 1690000000 cycles: 797505607 heartbeat IPC: 1.93177 cumulative IPC: 1.8267 (Simulation time: 3 hr 21 min 13 sec) 
Heartbeat CPU 0 instructions: 1700000004 cycles: 802693709 heartbeat IPC: 1.92749 cumulative IPC: 1.82749 (Simulation time: 3 hr 22 min 6 sec) 
Heartbeat CPU 0 instructions: 1710000001 cycles: 807892035 heartbeat IPC: 1.9237 cumulative IPC: 1.82825 (Simulation time: 3 hr 22 min 59 sec) 
Heartbeat CPU 0 instructions: 1720000001 cycles: 813087355 heartbeat IPC: 1.92481 cumulative IPC: 1.829 (Simulation time: 3 hr 23 min 52 sec) 
Heartbeat CPU 0 instructions: 1730000000 cycles: 818322096 heartbeat IPC: 1.91031 cumulative IPC: 1.82963 (Simulation time: 3 hr 24 min 45 sec) 
Heartbeat CPU 0 instructions: 1740000002 cycles: 823599231 heartbeat IPC: 1.89497 cumulative IPC: 1.83014 (Simulation time: 3 hr 25 min 38 sec) 
Heartbeat CPU 0 instructions: 1750000004 cycles: 828819262 heartbeat IPC: 1.9157 cumulative IPC: 1.8308 (Simulation time: 3 hr 26 min 31 sec) 
Heartbeat CPU 0 instructions: 1760000000 cycles: 834015054 heartbeat IPC: 1.92463 cumulative IPC: 1.83151 (Simulation time: 3 hr 27 min 23 sec) 
Heartbeat CPU 0 instructions: 1770000003 cycles: 839217304 heartbeat IPC: 1.92225 cumulative IPC: 1.83219 (Simulation time: 3 hr 28 min 16 sec) 
Heartbeat CPU 0 instructions: 1780000000 cycles: 844403589 heartbeat IPC: 1.92816 cumulative IPC: 1.8329 (Simulation time: 3 hr 29 min 9 sec) 
Heartbeat CPU 0 instructions: 1790000000 cycles: 849599868 heartbeat IPC: 1.92445 cumulative IPC: 1.83358 (Simulation time: 3 hr 30 min 2 sec) 
Heartbeat CPU 0 instructions: 1800000000 cycles: 854807287 heartbeat IPC: 1.92034 cumulative IPC: 1.83421 (Simulation time: 3 hr 30 min 55 sec) 
Heartbeat CPU 0 instructions: 1810000001 cycles: 859957565 heartbeat IPC: 1.94164 cumulative IPC: 1.83499 (Simulation time: 3 hr 31 min 48 sec) 
Heartbeat CPU 0 instructions: 1820000001 cycles: 865098024 heartbeat IPC: 1.94535 cumulative IPC: 1.83578 (Simulation time: 3 hr 32 min 40 sec) 
Heartbeat CPU 0 instructions: 1830000001 cycles: 870301085 heartbeat IPC: 1.92195 cumulative IPC: 1.8364 (Simulation time: 3 hr 33 min 33 sec) 
Heartbeat CPU 0 instructions: 1840000000 cycles: 875521145 heartbeat IPC: 1.91569 cumulative IPC: 1.83696 (Simulation time: 3 hr 34 min 26 sec) 
Heartbeat CPU 0 instructions: 1850000000 cycles: 880668878 heartbeat IPC: 1.9426 cumulative IPC: 1.8377 (Simulation time: 3 hr 35 min 19 sec) 
Heartbeat CPU 0 instructions: 1860000001 cycles: 885807548 heartbeat IPC: 1.94603 cumulative IPC: 1.83846 (Simulation time: 3 hr 36 min 12 sec) 
Heartbeat CPU 0 instructions: 1870000000 cycles: 890951141 heartbeat IPC: 1.94417 cumulative IPC: 1.83919 (Simulation time: 3 hr 37 min 4 sec) 
Heartbeat CPU 0 instructions: 1880000002 cycles: 896063370 heartbeat IPC: 1.95609 cumulative IPC: 1.83998 (Simulation time: 3 hr 37 min 57 sec) 
Heartbeat CPU 0 instructions: 1890000000 cycles: 901207074 heartbeat IPC: 1.94412 cumulative IPC: 1.84069 (Simulation time: 3 hr 38 min 49 sec) 
Heartbeat CPU 0 instructions: 1900000000 cycles: 906376138 heartbeat IPC: 1.93459 cumulative IPC: 1.84133 (Simulation time: 3 hr 39 min 42 sec) 
Heartbeat CPU 0 instructions: 1910000002 cycles: 911544829 heartbeat IPC: 1.93473 cumulative IPC: 1.84196 (Simulation time: 3 hr 40 min 35 sec) 
Heartbeat CPU 0 instructions: 1920000003 cycles: 916682264 heartbeat IPC: 1.9465 cumulative IPC: 1.84266 (Simulation time: 3 hr 41 min 27 sec) 
Heartbeat CPU 0 instructions: 1930000000 cycles: 921819166 heartbeat IPC: 1.9467 cumulative IPC: 1.84335 (Simulation time: 3 hr 42 min 20 sec) 
Heartbeat CPU 0 instructions: 1940000004 cycles: 926977120 heartbeat IPC: 1.93875 cumulative IPC: 1.84398 (Simulation time: 3 hr 43 min 12 sec) 
Heartbeat CPU 0 instructions: 1950000002 cycles: 932141910 heartbeat IPC: 1.93619 cumulative IPC: 1.84458 (Simulation time: 3 hr 44 min 5 sec) 
Heartbeat CPU 0 instructions: 1960000002 cycles: 937292774 heartbeat IPC: 1.94142 cumulative IPC: 1.84521 (Simulation time: 3 hr 44 min 57 sec) 
Heartbeat CPU 0 instructions: 1970000004 cycles: 942463126 heartbeat IPC: 1.9341 cumulative IPC: 1.84579 (Simulation time: 3 hr 45 min 50 sec) 
Heartbeat CPU 0 instructions: 1980000003 cycles: 947674440 heartbeat IPC: 1.9189 cumulative IPC: 1.84627 (Simulation time: 3 hr 46 min 43 sec) 
Heartbeat CPU 0 instructions: 1990000000 cycles: 952881336 heartbeat IPC: 1.92053 cumulative IPC: 1.84675 (Simulation time: 3 hr 47 min 36 sec) 
*** Reached end of trace: traces/644.nab_s-12521B.champsimtrace.xz
Heartbeat CPU 0 instructions: 2000000001 cycles: 958058928 heartbeat IPC: 1.9314 cumulative IPC: 1.84729 (Simulation time: 3 hr 48 min 28 sec) 
Finished CPU 0 instructions: 1500000000 cycles: 812002264 cumulative IPC: 1.84729 (Simulation time: 3 hr 48 min 28 sec) 

ChampSim completed all CPUs

Region of Interest Statistics

CPU 0 cumulative IPC: 1.84729 instructions: 1500000000 cycles: 812002264
cpu0_DTLB TOTAL     ACCESS:  306413924  HIT:  305603999  MISS:     809925
cpu0_DTLB LOAD      ACCESS:  288049677  HIT:  287249216  MISS:     800461
cpu0_DTLB RFO       ACCESS:   18364247  HIT:   18354783  MISS:       9464
cpu0_DTLB PREFETCH  ACCESS:          0  HIT:          0  MISS:          0
cpu0_DTLB WRITEBACK ACCESS:          0  HIT:          0  MISS:          0
cpu0_DTLB TRANSLATION ACCESS:          0  HIT:          0  MISS:          0
cpu0_DTLB PREFETCH  REQUESTED:          0  ISSUED:          0  USEFUL:          0  USELESS:          0
cpu0_DTLB AVERAGE MISS LATENCY: 14.2207 cycles
cpu0_ITLB TOTAL     ACCESS:    6767087  HIT:    6767081  MISS:          6
cpu0_ITLB LOAD      ACCESS:    6767087  HIT:    6767081  MISS:          6
cpu0_ITLB RFO       ACCESS:          0  HIT:          0  MISS:          0
cpu0_ITLB PREFETCH  ACCESS:          0  HIT:          0  MISS:          0
cpu0_ITLB WRITEBACK ACCESS:          0  HIT:          0  MISS:          0
cpu0_ITLB TRANSLATION ACCESS:          0  HIT:          0  MISS:          0
cpu0_ITLB PREFETCH  REQUESTED:          0  ISSUED:          0  USEFUL:          0  USELESS:          0
cpu0_ITLB AVERAGE MISS LATENCY: 363.5 cycles
cpu0_L1I TOTAL     ACCESS:   17359608  HIT:   17359459  MISS:        149
cpu0_L1I LOAD      ACCESS:   17359608  HIT:   17359459  MISS:        149
cpu0_L1I RFO       ACCESS:          0  HIT:          0  MISS:          0
cpu0_L1I PREFETCH  ACCESS:          0  HIT:          0  MISS:          0
cpu0_L1I WRITEBACK ACCESS:          0  HIT:          0  MISS:          0
cpu0_L1I TRANSLATION ACCESS:          0  HIT:          0  MISS:          0
cpu0_L1I PREFETCH  REQUESTED:          0  ISSUED:          0  USEFUL:          0  USELESS:          0
cpu0_L1I AVERAGE MISS LATENCY: 211.188 cycles
cpu0_STLB TOTAL     ACCESS:     809931  HIT:     788029  MISS:      21902
cpu0_STLB LOAD      ACCESS:     800467  HIT:     778666  MISS:      21801
cpu0_STLB RFO       ACCESS:       9464  HIT:       9363  MISS:        101
cpu0_STLB PREFETCH  ACCESS:          0  HIT:          0  MISS:          0
cpu0_STLB WRITEBACK ACCESS:          0  HIT:          0  MISS:          0
cpu0_STLB TRANSLATION ACCESS:          0  HIT:          0  MISS:          0
cpu0_STLB PREFETCH  REQUESTED:          0  ISSUED:          0  USEFUL:          0  USELESS:          0
cpu0_STLB AVERAGE MISS LATENCY: 191.819 cycles
cpu0_L1D TOTAL     ACCESS:  395732085  HIT:  380592105  MISS:   15139980
cpu0_L1D LOAD      ACCESS:  342481073  HIT:  327376121  MISS:   15104952
cpu0_L1D RFO       ACCESS:   53230193  HIT:   53208313  MISS:      21880
cpu0_L1D PREFETCH  ACCESS:          0  HIT:          0  MISS:          0
cpu0_L1D WRITEBACK ACCESS:          0  HIT:          0  MISS:          0
cpu0_L1D TRANSLATION ACCESS:      20819  HIT:       7671  MISS:      13148
cpu0_L1D PREFETCH  REQUESTED:          0  ISSUED:          0  USEFUL:          0  USELESS:          0
cpu0_L1D AVERAGE MISS LATENCY: 27.2319 cycles
cpu0_L2C TOTAL     ACCESS:   20200018  HIT:   18760673  MISS:    1439345
cpu0_L2C LOAD      ACCESS:   15105090  HIT:   13677528  MISS:    1427562
cpu0_L2C RFO       ACCESS:      21880  HIT:      10442  MISS:      11438
cpu0_L2C PREFETCH  ACCESS:          0  HIT:          0  MISS:          0
cpu0_L2C WRITEBACK ACCESS:    5059900  HIT:    5059833  MISS:         67
cpu0_L2C TRANSLATION ACCESS:      13148  HIT:      12870  MISS:        278
cpu0_L2C PREFETCH  REQUESTED:          0  ISSUED:          0  USEFUL:          0  USELESS:          0
cpu0_L2C AVERAGE MISS LATENCY: 170.584 cycles
LLC TOTAL     ACCESS:    1651813  HIT:     290286  MISS:    1361527
LLC LOAD      ACCESS:    1427559  HIT:      86618  MISS:    1340941
LLC RFO       ACCESS:      11438  HIT:       1319  MISS:      10119
LLC PREFETCH  ACCESS:          0  HIT:          0  MISS:          0
LLC WRITEBACK ACCESS:     212538  HIT:     202141  MISS:      10397
LLC TRANSLATION ACCESS:        278  HIT:        208  MISS:         70
LLC PREFETCH  REQUESTED:          0  ISSUED:          0  USEFUL:          0  USELESS:          0
LLC AVERAGE MISS LATENCY: 158.135 cycles
~~~~~~~~~~Reuse Distance Profiler output~~~~~~~~~~
0	22240144	2164864
1	14387968	6036912
2	12302832	2779568
3	4170704	3462288
4	7164976	6151280
5	19740080	16656848
6	16099984	12806032
7	7014832	5108560
8	8665648	7468304
9	6517648	5522912
10	12336880	11520832
11	7370448	7081216
12	8150320	7889808
13	4372144	4146192
14	4886384	4394976
15	6818880	6469008
16	6069248	5914752
17	5276864	5005952
18	4626032	4413392
19	6885216	6686944
20	4382624	3839792
21	12302528	11686896
22	9739920	9522832
23	12667600	11927728
24	11377312	5297392
25	4484864	4270576
26	10909408	10682352
27	21332720	21155936
28	109788288	109635312
29	50885024	50722160
30	23802608	23647104
31	3498160	3361168
32	2781024	2659600
33	1858784	1641104
34	2061728	1685392
35	1425040	968816
36	1765744	1546896
37	1029280	878912
38	1041984	912128
39	694272	544832
40	713168	598784
41	268400	166512
42	208864	128320
43	200096	129904
44	176032	116928
45	154896	108464
46	162800	122208
47	175840	125904
48	176656	124064
49	182416	118864
50	277136	202128
51	263232	189456
52	297104	229536
53	212336	144016
54	262656	192096
55	426144	347888
56	781232	704080
57	2020112	1948272
58	1897440	1825168
59	1724144	1653600
60	623312	544320
61	353536	276768
62	339936	206288
63	264640	147360
64	406688	204624
66	343984	174080
68	314400	193568
70	272960	184192
72	293824	167040
74	325936	176880
76	315392	201872
78	342064	255616
80	402688	311584
82	351728	294080
84	528368	489712
86	1705824	1674224
88	923488	891552
90	489792	456416
92	367248	331824
94	285520	248960
96	295104	246208
98	328768	271168
100	361328	306224
102	368256	326352
104	349744	326272
106	412560	396912
108	541360	528288
110	590688	582688
112	434736	424000
114	479632	462288
116	784464	768128
118	267152	258688
120	124912	121888
122	70448	68416
124	45280	43088
126	46480	44000
128	68144	64352
132	47920	45888
136	79696	77632
140	177616	176672
144	566512	565328
148	124192	122896
152	34304	32128
156	27024	24752
160	27984	25808
164	45920	43824
168	146176	143984
172	528384	525664
176	312912	310528
180	49264	47152
184	22928	21184
188	23760	22480
192	26528	25840
196	77040	76544
200	264464	263984
204	351904	351600
208	82864	82512
212	32560	32240
216	33104	32880
220	35632	35440
224	63152	62976
228	218320	218144
232	477040	476944
236	113360	113168
240	26432	26240
244	13984	13712
248	11904	11664
252	18432	18176
256	265536	265104
264	115984	115680
272	21392	21296
280	63120	63024
288	301952	301904
296	62288	62256
304	25104	25056
312	147424	147408
320	239200	239040
328	37712	37584
336	21584	21568
344	305056	305040
352	95488	95456
360	17856	17808
368	42960	42928
376	141456	141408
384	30592	30576
392	13008	12960
400	151392	151360
408	159456	159440
416	27840	27840
424	34512	34496
432	247424	247424
440	73488	73488
448	21904	21888
456	34048	34032
464	274864	274864
472	47744	47744
480	21024	21024
488	142384	142384
496	107616	107616
504	28448	28416
512	150560	150560
528	52624	52624
544	421520	421504
560	83632	83616
576	140640	140608
592	40768	40736
608	99504	99456
624	62832	62832
640	123072	123056
656	36992	36960
672	18384	18384
688	72528	72480
704	20080	20064
720	22624	22592
736	14416	14384
752	27536	27536
768	19200	19200
784	20576	20576
800	16592	16576
816	14736	14736
832	17232	17216
848	11488	11456
864	24736	24704
880	11872	11808
896	17264	17216
912	9392	9360
928	13200	13184
944	10672	10672
960	10976	10960
976	15584	15584
992	8864	8864
1008	11376	11328
1024	17232	17200
1056	17856	17856
1088	23760	23728
1120	16688	16640
1152	17744	17680
1184	19776	19760
1216	17248	17248
1248	13104	13072
1280	15520	15488
1312	14176	14176
1344	10256	10240
1376	11952	11936
1408	14496	14496
1440	9360	9328
1472	9760	9712
1504	12976	12944
1536	12320	12320
1568	10000	9920
1600	11632	11584
1632	11824	11824
1664	10192	10192
1696	10496	10480
1728	11776	11744
1760	8960	8928
1792	10240	10224
1824	12304	12240
1856	10672	10640
1888	9568	9520
1920	11104	11088
1952	9088	9088
1984	8272	8256
2016	8112	8112
2048	18240	18224
2112	19632	19568
2176	16384	16336
2240	22752	22624
2304	19120	19088
2368	17200	17168
2432	19088	19008
2496	17248	17232
2560	17200	17072
2624	17728	17680
2688	17408	17328
2752	17232	17184
2816	17856	17792
2880	18480	18400
2944	15824	15744
3008	16048	15984
3072	17328	17328
3136	14656	14624
3200	14032	13984
3264	14352	14352
3328	17376	17264
3392	16736	16688
3456	16864	16848
3520	17200	17168
3584	14928	14912
3648	15600	15552
3712	16592	16480
3776	14848	14848
3840	16752	16672
3904	16400	16256
3968	18112	18000
4032	15504	15312
4096	35792	35712
4224	35872	35776
4352	31744	31536
4480	31088	30976
4608	33168	32992
4736	33808	33616
4864	37232	36944
4992	34768	34624
5120	35984	35856
5248	33584	33392
5376	34576	34464
5504	32752	32672
5632	33056	32864
5760	29136	29056
5888	30480	30336
6016	30480	30416
6144	28560	28448
6272	27952	27856
6400	28000	27936
6528	27680	27568
6656	27072	26976
6784	26384	26336
6912	28320	28192
7040	29728	29600
7168	30128	30000
7296	29632	29568
7424	27280	27216
7552	26896	26832
7680	30384	30336
7808	27824	27744
7936	28432	28336
8064	29184	29024
8192	61792	61504
8448	60000	59744
8704	57968	57792
8960	65616	65344
9216	67424	67184
9472	72960	72768
9728	75408	75152
9984	67888	67616
10240	66864	66656
10496	64656	64512
10752	64608	64352
11008	69728	69488
11264	66592	66432
11520	62992	62912
11776	62464	62208
12032	60368	60256
12288	67872	67616
12544	75440	75264
12800	69104	68896
13056	71520	71408
13312	71600	71328
13568	76192	75984
13824	77632	77440
14080	78224	78016
14336	79936	79680
14592	80160	79936
14848	78080	77792
15104	76144	76016
15360	83952	83744
15616	86880	86768
15872	89984	89776
16128	92496	92336
16384	173520	173088
16896	170000	169616
17408	152240	151888
17920	156688	156576
18432	158640	158368
18944	155280	155024
19456	177696	177344
19968	192176	191888
20480	181056	180720
20992	178432	178080
21504	175376	175120
22016	170784	170528
22528	154336	153984
23040	164480	164192
23552	145552	145360
24064	136032	135936
24576	128512	128368
25088	119216	119088
25600	119072	118928
26112	112912	112880
26624	115904	115712
27136	118128	117872
27648	115632	115424
28160	105264	105104
28672	116016	115872
29184	96976	96896
29696	102640	102464
30208	96064	95968
30720	106336	106160
31232	115056	114944
31744	111760	111696
32256	120816	120736
32768	232352	232176
33792	234336	234128
34816	268560	268304
35840	250304	250000
36864	258864	258592
37888	272400	272192
38912	281680	281376
39936	265856	265648
40960	265632	265520
41984	254816	254592
43008	258064	257872
44032	257632	257360
45056	269504	269232
46080	243328	243120
47104	268448	268272
48128	259856	259776
49152	284128	283984
50176	275792	275536
51200	281072	280928
52224	283248	283120
53248	270704	270544
54272	300512	300416
55296	340448	340192
56320	353424	353120
57344	324208	324064
58368	283200	283056
59392	270688	270544
60416	238272	238048
61440	243776	243664
62464	245888	245744
63488	282000	281840
64512	289856	289584
65536	631552	631088
67584	612720	612448
69632	430048	429824
71680	191456	191424
73728	129008	128960
75776	139408	139344
77824	133776	133648
79872	140160	140080
81920	118288	118208
83968	65440	65440
86016	24112	24112
88064	14560	14560
90112	9632	9632
92160	9504	9504
94208	10496	10496
96256	8928	8928
98304	8928	8912
100352	9104	9104
102400	10256	10240
104448	8656	8656
106496	9456	9456
108544	9760	9744
110592	11504	11488
112640	11488	11472
114688	10464	10464
116736	10256	10240
118784	9648	9600
120832	9392	9360
122880	8848	8848
124928	8160	8160
126976	9936	9920
129024	10528	10528
131072	21216	21168
135168	20464	20448
139264	17680	17680
143360	9120	9120
147456	9392	9344
151552	10592	10592
155648	10192	10176
159744	9760	9744
163840	10544	10544
167936	8192	8192
172032	6880	6864
176128	6944	6944
180224	6288	6288
184320	5824	5808
188416	6192	6176
192512	7088	7088
196608	7984	7952
200704	8400	8400
204800	8848	8832
208896	9392	9344
212992	6960	6928
217088	5264	5264
221184	6656	6624
225280	7360	7344
229376	7376	7360
233472	6304	6288
237568	6000	6000
241664	6496	6496
245760	6272	6256
249856	6816	6816
253952	7232	7232
258048	6512	6512
262144	13984	13984
270336	12960	12960
278528	13936	13936
286720	10736	10704
294912	10256	10208
303104	11392	11360
311296	10016	9984
319488	10176	10176
327680	10368	10352
335872	7520	7488
344064	7584	7568
352256	5920	5920
360448	4736	4688
368640	5248	5232
376832	5072	5056
385024	5344	5328
393216	5904	5888
401408	6112	6112
409600	5472	5456
417792	5248	5216
425984	4752	4752
434176	4176	4160
442368	4192	4192
450560	48592	48560
458752	4128	4128
466944	16672	16672
475136	13200	13152
483328	3328	3312
491520	3056	3056
499712	2576	2576
507904	2544	2544
516096	2992	2976
524288	4800	4752
540672	4832	4800
557056	5376	5312
573440	4384	4352
589824	8240	8224
606208	8144	8144
622592	8304	8256
638976	8208	8160
655360	7280	7280
671744	8192	8160
688128	5584	5568
704512	3040	3040
720896	3264	3232
737280	3488	3488
753664	3568	3520
770048	3360	3360
786432	2528	2512
802816	2640	2624
819200	2736	2720
835584	3168	3152
851968	2256	2240
868352	1648	1584
884736	2032	2000
901120	2224	2224
917504	2432	2416
933888	2256	2224
950272	2112	2080
966656	2576	2560
983040	2016	1984
999424	2336	2288
1015808	1808	1776
1032192	1856	1824
1048576	3872	3856
1081344	3552	3488
1114112	3504	3488
1146880	26128	2768
1179648	2960	2944
1212416	3296	3264
1245184	2880	2800
1277952	2720	2704
1310720	2368	2336
1343488	2544	2496
1376256	2480	2480
1409024	2336	2304
1441792	2400	2352
1474560	2688	2640
1507328	2288	2240
1540096	2304	2272
1572864	2032	1968
1605632	1984	1920
1638400	2288	2224
1671168	1984	1968
1703936	1936	1872
1736704	2096	2096
1769472	1616	1600
1802240	1824	1808
1835008	1984	1904
1867776	1952	1936
1900544	1632	1600
1933312	1808	1792
1966080	1904	1888
1998848	1680	1664
2031616	1584	1456
2064384	2096	2032
2097152	3152	3104
2162688	3056	2944
2228224	3296	3248
2293760	2928	2864
2359296	3296	3264
2424832	3664	3520
2490368	2704	2640
2555904	3504	3440
2621440	3216	3152
2686976	2672	2640
2752512	2848	2768
2818048	2816	2752
2883584	2384	2304
2949120	2560	2496
3014656	2416	2320
3080192	2320	2240
3145728	1888	1840
3211264	2256	2160
3276800	2368	2240
3342336	2336	2256
3407872	2384	2336
3473408	2032	1968
3538944	2080	1952
3604480	1824	1744
3670016	2240	2192
3735552	1984	1936
3801088	2400	2304
3866624	1632	1568
3932160	2080	1984
3997696	1984	1952
4063232	2016	1968
4128768	2016	2000
4194304	3712	3568
4325376	3728	3600
4456448	3712	3552
4587520	4032	3760
4718592	6176	6032
4849664	5696	5504
4980736	6560	6352
5111808	6320	6176
5242880	6368	6192
5373952	6160	5968
5505024	6112	5936
5636096	6096	5952
5767168	7136	7008
5898240	6832	6576
6029312	6064	5888
6160384	6304	6160
6291456	5696	5488
6422528	6416	6304
6553600	5632	5632
6684672	5376	5376
6815744	4832	4832
6946816	5680	5680
7077888	5616	5616
7208960	5984	5984
7340032	6432	6432
7471104	5200	5200
7602176	2416	2416
7733248	2912	2912
7864320	2544	2544
7995392	2400	2400
8126464	2688	2688
8257536	2832	2832
8388608	4992	4992
8650752	5024	5024
8912896	4944	4944
9175040	5168	5168
9437184	5632	5632
9699328	5536	5536
9961472	5616	5616
10223616	4432	4432
10485760	5296	5296
10747904	3408	3408
11010048	3456	3456
11272192	4400	4400
11534336	5488	5488
11796480	4688	4688
12058624	5008	5008
12320768	5456	5456
12582912	4736	4736
12845056	3792	3792
13107200	3232	3232
13369344	2416	2416
13631488	736	736
13893632	880	880
14155776	752	752
14417920	816	816
14680064	1088	1088
14942208	1008	1008
15204352	640	640
15466496	736	736
15728640	928	928
15990784	832	832
16252928	768	768
16515072	608	608
16777216	1360	1360
17301504	1216	1216
17825792	1168	1168
18350080	1104	1104
18874368	1456	1456
19398656	1392	1392
19922944	848	848
20447232	944	944
20971520	976	976
21495808	1664	1664
22020096	992	992
22544384	1008	1008
23068672	1088	1088
23592960	608	608
24117248	1088	1088
24641536	992	992
25165824	1056	1056
25690112	672	672
26214400	704	704
26738688	816	816
27262976	896	896
27787264	400	400
28311552	624	624
28835840	640	640
29360128	384	384
29884416	432	432
30408704	432	432
30932992	480	480
31457280	304	304
31981568	352	352
32505856	480	480
33030144	528	528
33554432	768	768
34603008	784	784
35651584	1008	1008
36700160	704	704
37748736	688	688
38797312	1232	1200
39845888	1200	1200
40894464	1072	1072
41943040	1232	1216
42991616	704	688
44040192	528	512
45088768	800	784
46137344	752	736
47185920	624	624
48234496	544	544
49283072	736	720
50331648	896	896
51380224	752	752
52428800	912	912
53477376	752	752
54525952	832	832
55574528	784	784
56623104	672	672
57671680	480	480
58720256	528	528
59768832	528	528
60817408	448	448
61865984	320	304
62914560	160	160
63963136	352	352
65011712	448	432
66060288	512	496
67108864	1088	1072
69206016	704	704
71303168	1424	1424
73400320	1456	1456
75497472	880	832
77594624	768	768
79691776	1312	1264
81788928	752	736
83886080	976	976
85983232	1184	1184
88080384	832	800
90177536	752	672
92274688	304	304
94371840	576	512
96468992	672	640
98566144	400	384
100663296	640	624
102760448	688	688
104857600	528	512
106954752	464	464
109051904	608	608
111149056	336	320
113246208	656	656
115343360	576	576
117440512	512	496
119537664	832	832
121634816	608	608
123731968	384	336
125829120	256	224
127926272	256	224
130023424	416	416
132120576	448	416
134217728	576	576
138412032	448	416
142606336	880	816
146800640	1152	1104
150994944	656	608
155189248	880	864
159383552	784	768
163577856	928	928
167772160	1104	1104
171966464	1360	1360
176160768	1104	1104
180355072	1792	1792
184549376	1312	1312
188743680	1184	1184
192937984	224	224
197132288	512	512
201326592	736	736
205520896	320	320
209715200	144	144
213909504	112	112
218103808	304	304
222298112	128	128
226492416	288	288
230686720	240	240
234881024	96	96
239075328	128	128
243269632	304	304
247463936	528	528
251658240	224	224
255852544	64	64
260046848	256	256
264241152	112	112
268435456	928	928
276824064	624	624
285212672	160	160
293601280	784	784
301989888	1024	1024
310378496	832	832
318767104	1328	1328
327155712	1072	1072
335544320	336	336
343932928	704	704
352321536	128	128
360710144	0	0
369098752	0	0
377487360	0	0
385875968	0	0
394264576	0	0
402653184	0	0
411041792	0	0
419430400	0	0
427819008	0	0
436207616	0	0
444596224	0	0
452984832	0	0
461373440	0	0
469762048	0	0
478150656	0	0
486539264	0	0
494927872	0	0
503316480	0	0
511705088	0	0
520093696	0	0
528482304	0	0
536870912	0	0
553648128	0	0
570425344	0	0
587202560	0	0
603979776	0	0
620756992	0	0
637534208	0	0
654311424	0	0
671088640	0	0
687865856	0	0
704643072	0	0
721420288	0	0
738197504	0	0
754974720	0	0
771751936	0	0
788529152	0	0
805306368	0	0
822083584	0	0
838860800	0	0
855638016	0	0
872415232	0	0
889192448	0	0
905969664	0	0
922746880	0	0
939524096	0	0
956301312	0	0
973078528	0	0
989855744	0	0
1006632960	0	0
1023410176	0	0
1040187392	0	0
1056964608	0	0
1073741824	0	0
1107296256	0	0
1140850688	0	0
1174405120	0	0
1207959552	0	0
1241513984	0	0
1275068416	0	0
1308622848	0	0
1342177280	0	0
1375731712	0	0
1409286144	0	0
1442840576	0	0
1476395008	0	0
1509949440	0	0
1543503872	0	0
1577058304	0	0
1610612736	0	0
1644167168	0	0
1677721600	0	0
1711276032	0	0
1744830464	0	0
1778384896	0	0
1811939328	0	0
1845493760	0	0
1879048192	0	0
1912602624	0	0
1946157056	0	0
1979711488	0	0
2013265920	0	0
2046820352	0	0
2080374784	0	0
2113929216	0	0
2147483648	0	0
2214592512	0	0
2281701376	0	0
2348810240	0	0
2415919104	0	0
2483027968	0	0
2550136832	0	0
2617245696	0	0
2684354560	0	0
2751463424	0	0
2818572288	0	0
2885681152	0	0
2952790016	0	0
3019898880	0	0
3087007744	0	0
3154116608	0	0
3221225472	0	0
3288334336	0	0
3355443200	0	0
3422552064	0	0
3489660928	0	0
3556769792	0	0
3623878656	0	0
3690987520	0	0
3758096384	0	0
3825205248	0	0
3892314112	0	0
3959422976	0	0
4026531840	0	0
4093640704	0	0
4160749568	0	0
4227858432	0	0
~~~~~~~~~~Reuse Distance Profiler output end~~~~~~~~~~

DRAM Statistics
 CHANNEL 0
 RQ ROW_BUFFER_HIT:     576012  ROW_BUFFER_MISS:     775088
 DBUS AVG_CONGESTED_CYCLE:    3.87804
 WQ ROW_BUFFER_HIT:      17391  ROW_BUFFER_MISS:     171749  FULL:          0


CPU 0 Branch Prediction Accuracy: 99.6662% MPKI: 0.316565 Average ROB Occupancy at Mispredict: 158.024
Branch type MPKI
BRANCH_DIRECT_JUMP: 1.4e-05
BRANCH_INDIRECT: 0.0929827
BRANCH_CONDITIONAL: 0.223553
BRANCH_DIRECT_CALL: 8e-06
BRANCH_INDIRECT_CALL: 0
BRANCH_RETURN: 8e-06

