
*** ChampSim Multicore Out-of-Order Simulator ***

Warmup Instructions: 500000000
Simulation Instructions: 1500000000
Number of CPUs: 1
Off-chip DRAM Size: 4 GiB Channels: 1 Width: 64-bit Data Rate: 3200 MT/s

VirtualMemory physical capacity: 8588881920 num_ppages: 2096895
VirtualMemory page size: 4096 log2_page_size: 12

CPU 0 runs traces/648.exchange2_s-1511B.champsimtrace.xz
CPU 0 Bimodal branch predictor
Basic BTB sets: 1024 ways: 8 indirect buffer size: 4096 RAS size: 64
Initializing LRU.
Initializing LRU.
Initializing LRU.
Initializing LRU.
Initializing rdLRU.
Initializing LRU.
Initializing LRU.
Heartbeat CPU 0 instructions: 10000000 cycles: 2500160 heartbeat IPC: 3.99974 cumulative IPC: 3.99974 (Simulation time: 0 hr 0 min 56 sec) 
Heartbeat CPU 0 instructions: 20000000 cycles: 5000160 heartbeat IPC: 4 cumulative IPC: 3.99987 (Simulation time: 0 hr 1 min 49 sec) 
Heartbeat CPU 0 instructions: 30000000 cycles: 7500160 heartbeat IPC: 4 cumulative IPC: 3.99991 (Simulation time: 0 hr 2 min 43 sec) 
Heartbeat CPU 0 instructions: 40000000 cycles: 10000160 heartbeat IPC: 4 cumulative IPC: 3.99994 (Simulation time: 0 hr 3 min 36 sec) 
Heartbeat CPU 0 instructions: 50000000 cycles: 12500160 heartbeat IPC: 4 cumulative IPC: 3.99995 (Simulation time: 0 hr 4 min 29 sec) 
Heartbeat CPU 0 instructions: 60000000 cycles: 15000160 heartbeat IPC: 4 cumulative IPC: 3.99996 (Simulation time: 0 hr 5 min 23 sec) 
Heartbeat CPU 0 instructions: 70000000 cycles: 17500160 heartbeat IPC: 4 cumulative IPC: 3.99996 (Simulation time: 0 hr 6 min 15 sec) 
Heartbeat CPU 0 instructions: 80000001 cycles: 20001367 heartbeat IPC: 3.99807 cumulative IPC: 3.99973 (Simulation time: 0 hr 7 min 2 sec) 
Heartbeat CPU 0 instructions: 90000001 cycles: 22501699 heartbeat IPC: 3.99947 cumulative IPC: 3.9997 (Simulation time: 0 hr 7 min 56 sec) 
Heartbeat CPU 0 instructions: 100000001 cycles: 25002031 heartbeat IPC: 3.99947 cumulative IPC: 3.99968 (Simulation time: 0 hr 8 min 49 sec) 
Heartbeat CPU 0 instructions: 110000002 cycles: 27502364 heartbeat IPC: 3.99947 cumulative IPC: 3.99966 (Simulation time: 0 hr 9 min 44 sec) 
Heartbeat CPU 0 instructions: 120000002 cycles: 30002697 heartbeat IPC: 3.99947 cumulative IPC: 3.99964 (Simulation time: 0 hr 10 min 37 sec) 
Heartbeat CPU 0 instructions: 130000002 cycles: 32502697 heartbeat IPC: 4 cumulative IPC: 3.99967 (Simulation time: 0 hr 11 min 33 sec) 
Heartbeat CPU 0 instructions: 140000002 cycles: 35002697 heartbeat IPC: 4 cumulative IPC: 3.99969 (Simulation time: 0 hr 12 min 28 sec) 
Heartbeat CPU 0 instructions: 150000003 cycles: 37503361 heartbeat IPC: 3.99894 cumulative IPC: 3.99964 (Simulation time: 0 hr 13 min 21 sec) 
Heartbeat CPU 0 instructions: 160000003 cycles: 40003361 heartbeat IPC: 4 cumulative IPC: 3.99966 (Simulation time: 0 hr 14 min 16 sec) 
Heartbeat CPU 0 instructions: 170000003 cycles: 42503361 heartbeat IPC: 4 cumulative IPC: 3.99968 (Simulation time: 0 hr 15 min 11 sec) 
Heartbeat CPU 0 instructions: 180000003 cycles: 45003361 heartbeat IPC: 4 cumulative IPC: 3.9997 (Simulation time: 0 hr 16 min 4 sec) 
Heartbeat CPU 0 instructions: 190000003 cycles: 47503361 heartbeat IPC: 4 cumulative IPC: 3.99972 (Simulation time: 0 hr 16 min 59 sec) 
Heartbeat CPU 0 instructions: 200000003 cycles: 50003361 heartbeat IPC: 4 cumulative IPC: 3.99973 (Simulation time: 0 hr 17 min 54 sec) 
Heartbeat CPU 0 instructions: 210000003 cycles: 52503361 heartbeat IPC: 4 cumulative IPC: 3.99974 (Simulation time: 0 hr 18 min 47 sec) 
Heartbeat CPU 0 instructions: 220000001 cycles: 55003693 heartbeat IPC: 3.99947 cumulative IPC: 3.99973 (Simulation time: 0 hr 19 min 38 sec) 
Heartbeat CPU 0 instructions: 230000001 cycles: 57503693 heartbeat IPC: 4 cumulative IPC: 3.99974 (Simulation time: 0 hr 20 min 27 sec) 
Heartbeat CPU 0 instructions: 240000001 cycles: 60003693 heartbeat IPC: 4 cumulative IPC: 3.99975 (Simulation time: 0 hr 21 min 22 sec) 
Heartbeat CPU 0 instructions: 250000001 cycles: 62503693 heartbeat IPC: 4 cumulative IPC: 3.99976 (Simulation time: 0 hr 22 min 14 sec) 
Heartbeat CPU 0 instructions: 260000002 cycles: 65004025 heartbeat IPC: 3.99947 cumulative IPC: 3.99975 (Simulation time: 0 hr 23 min 3 sec) 
Heartbeat CPU 0 instructions: 270000002 cycles: 67504025 heartbeat IPC: 4 cumulative IPC: 3.99976 (Simulation time: 0 hr 23 min 56 sec) 
Heartbeat CPU 0 instructions: 280000002 cycles: 70004025 heartbeat IPC: 4 cumulative IPC: 3.99977 (Simulation time: 0 hr 24 min 51 sec) 
Heartbeat CPU 0 instructions: 290000000 cycles: 72504690 heartbeat IPC: 3.99894 cumulative IPC: 3.99974 (Simulation time: 0 hr 25 min 38 sec) 
Heartbeat CPU 0 instructions: 300000000 cycles: 75004690 heartbeat IPC: 4 cumulative IPC: 3.99975 (Simulation time: 0 hr 26 min 31 sec) 
Heartbeat CPU 0 instructions: 310000002 cycles: 77505023 heartbeat IPC: 3.99947 cumulative IPC: 3.99974 (Simulation time: 0 hr 27 min 23 sec) 
Heartbeat CPU 0 instructions: 320000002 cycles: 80005023 heartbeat IPC: 4 cumulative IPC: 3.99975 (Simulation time: 0 hr 28 min 19 sec) 
Heartbeat CPU 0 instructions: 330000002 cycles: 82505170 heartbeat IPC: 3.99976 cumulative IPC: 3.99975 (Simulation time: 0 hr 29 min 11 sec) 
Heartbeat CPU 0 instructions: 340000001 cycles: 85005355 heartbeat IPC: 3.9997 cumulative IPC: 3.99975 (Simulation time: 0 hr 30 min 4 sec) 
Heartbeat CPU 0 instructions: 350000001 cycles: 87505355 heartbeat IPC: 4 cumulative IPC: 3.99976 (Simulation time: 0 hr 30 min 59 sec) 
Heartbeat CPU 0 instructions: 360000001 cycles: 90005687 heartbeat IPC: 3.99947 cumulative IPC: 3.99975 (Simulation time: 0 hr 31 min 51 sec) 
Heartbeat CPU 0 instructions: 370000001 cycles: 92505687 heartbeat IPC: 4 cumulative IPC: 3.99975 (Simulation time: 0 hr 32 min 40 sec) 
Heartbeat CPU 0 instructions: 380000001 cycles: 95005687 heartbeat IPC: 4 cumulative IPC: 3.99976 (Simulation time: 0 hr 33 min 30 sec) 
Heartbeat CPU 0 instructions: 390000001 cycles: 97505687 heartbeat IPC: 4 cumulative IPC: 3.99977 (Simulation time: 0 hr 34 min 16 sec) 
Heartbeat CPU 0 instructions: 400000003 cycles: 100005835 heartbeat IPC: 3.99976 cumulative IPC: 3.99977 (Simulation time: 0 hr 35 min 8 sec) 
Heartbeat CPU 0 instructions: 410000002 cycles: 102506020 heartbeat IPC: 3.9997 cumulative IPC: 3.99977 (Simulation time: 0 hr 35 min 59 sec) 
Heartbeat CPU 0 instructions: 420000002 cycles: 105006020 heartbeat IPC: 4 cumulative IPC: 3.99977 (Simulation time: 0 hr 36 min 50 sec) 
Heartbeat CPU 0 instructions: 430000002 cycles: 107506020 heartbeat IPC: 4 cumulative IPC: 3.99978 (Simulation time: 0 hr 37 min 36 sec) 
Heartbeat CPU 0 instructions: 440000002 cycles: 110006020 heartbeat IPC: 4 cumulative IPC: 3.99978 (Simulation time: 0 hr 38 min 33 sec) 
Heartbeat CPU 0 instructions: 450000002 cycles: 112506020 heartbeat IPC: 4 cumulative IPC: 3.99979 (Simulation time: 0 hr 39 min 21 sec) 
Heartbeat CPU 0 instructions: 460000002 cycles: 115006020 heartbeat IPC: 4 cumulative IPC: 3.99979 (Simulation time: 0 hr 40 min 12 sec) 
Heartbeat CPU 0 instructions: 470000002 cycles: 117506020 heartbeat IPC: 4 cumulative IPC: 3.9998 (Simulation time: 0 hr 41 min 2 sec) 
Heartbeat CPU 0 instructions: 480000002 cycles: 120006020 heartbeat IPC: 4 cumulative IPC: 3.9998 (Simulation time: 0 hr 41 min 55 sec) 
Heartbeat CPU 0 instructions: 490000002 cycles: 122506020 heartbeat IPC: 4 cumulative IPC: 3.9998 (Simulation time: 0 hr 42 min 46 sec) 
Heartbeat CPU 0 instructions: 500000002 cycles: 125006020 heartbeat IPC: 4 cumulative IPC: 3.99981 (Simulation time: 0 hr 43 min 35 sec) 

Warmup complete CPU 0 instructions: 500000002 cycles: 125006020 (Simulation time: 0 hr 43 min 35 sec) 

Heartbeat CPU 0 instructions: 510000000 cycles: 133104904 heartbeat IPC: 1.23474 cumulative IPC: 1.23474 (Simulation time: 0 hr 44 min 14 sec) 
Heartbeat CPU 0 instructions: 520000000 cycles: 141252340 heartbeat IPC: 1.22738 cumulative IPC: 1.23105 (Simulation time: 0 hr 44 min 57 sec) 
Heartbeat CPU 0 instructions: 530000003 cycles: 149382772 heartbeat IPC: 1.22995 cumulative IPC: 1.23068 (Simulation time: 0 hr 45 min 38 sec) 
Heartbeat CPU 0 instructions: 540000003 cycles: 157556581 heartbeat IPC: 1.22342 cumulative IPC: 1.22886 (Simulation time: 0 hr 46 min 22 sec) 
Heartbeat CPU 0 instructions: 550000004 cycles: 165744751 heartbeat IPC: 1.22127 cumulative IPC: 1.22733 (Simulation time: 0 hr 47 min 3 sec) 
Heartbeat CPU 0 instructions: 560000000 cycles: 174105034 heartbeat IPC: 1.19613 cumulative IPC: 1.22202 (Simulation time: 0 hr 47 min 45 sec) 
Heartbeat CPU 0 instructions: 570000000 cycles: 182490294 heartbeat IPC: 1.19257 cumulative IPC: 1.21772 (Simulation time: 0 hr 48 min 32 sec) 
Heartbeat CPU 0 instructions: 580000003 cycles: 190667461 heartbeat IPC: 1.22292 cumulative IPC: 1.21837 (Simulation time: 0 hr 49 min 14 sec) 
Heartbeat CPU 0 instructions: 590000000 cycles: 198891744 heartbeat IPC: 1.21591 cumulative IPC: 1.2181 (Simulation time: 0 hr 49 min 58 sec) 
Heartbeat CPU 0 instructions: 600000000 cycles: 207036003 heartbeat IPC: 1.22786 cumulative IPC: 1.21907 (Simulation time: 0 hr 50 min 38 sec) 
Heartbeat CPU 0 instructions: 610000000 cycles: 215095463 heartbeat IPC: 1.24078 cumulative IPC: 1.22101 (Simulation time: 0 hr 51 min 20 sec) 
Heartbeat CPU 0 instructions: 620000003 cycles: 223165624 heartbeat IPC: 1.23913 cumulative IPC: 1.2225 (Simulation time: 0 hr 52 min 5 sec) 
Heartbeat CPU 0 instructions: 630000003 cycles: 231522136 heartbeat IPC: 1.19667 cumulative IPC: 1.22047 (Simulation time: 0 hr 52 min 49 sec) 
Heartbeat CPU 0 instructions: 640000001 cycles: 239895234 heartbeat IPC: 1.1943 cumulative IPC: 1.21857 (Simulation time: 0 hr 53 min 30 sec) 
Heartbeat CPU 0 instructions: 650000000 cycles: 248152015 heartbeat IPC: 1.21113 cumulative IPC: 1.21807 (Simulation time: 0 hr 54 min 16 sec) 
Heartbeat CPU 0 instructions: 660000002 cycles: 256623762 heartbeat IPC: 1.18039 cumulative IPC: 1.21564 (Simulation time: 0 hr 55 min 1 sec) 
Heartbeat CPU 0 instructions: 670000000 cycles: 265115713 heartbeat IPC: 1.17759 cumulative IPC: 1.21334 (Simulation time: 0 hr 55 min 45 sec) 
Heartbeat CPU 0 instructions: 680000000 cycles: 273640859 heartbeat IPC: 1.173 cumulative IPC: 1.21102 (Simulation time: 0 hr 56 min 26 sec) 
Heartbeat CPU 0 instructions: 690000000 cycles: 282127344 heartbeat IPC: 1.17834 cumulative IPC: 1.20926 (Simulation time: 0 hr 57 min 8 sec) 
Heartbeat CPU 0 instructions: 700000001 cycles: 290584311 heartbeat IPC: 1.18246 cumulative IPC: 1.20789 (Simulation time: 0 hr 57 min 51 sec) 
Heartbeat CPU 0 instructions: 710000002 cycles: 299041742 heartbeat IPC: 1.18239 cumulative IPC: 1.20665 (Simulation time: 0 hr 58 min 33 sec) 
Heartbeat CPU 0 instructions: 720000000 cycles: 307453976 heartbeat IPC: 1.18874 cumulative IPC: 1.20582 (Simulation time: 0 hr 59 min 15 sec) 
Heartbeat CPU 0 instructions: 730000002 cycles: 315801157 heartbeat IPC: 1.19801 cumulative IPC: 1.20548 (Simulation time: 1 hr 0 min 0 sec) 
Heartbeat CPU 0 instructions: 740000003 cycles: 324077766 heartbeat IPC: 1.20822 cumulative IPC: 1.2056 (Simulation time: 1 hr 0 min 44 sec) 
Heartbeat CPU 0 instructions: 750000001 cycles: 332373599 heartbeat IPC: 1.20542 cumulative IPC: 1.20559 (Simulation time: 1 hr 1 min 31 sec) 
Heartbeat CPU 0 instructions: 760000001 cycles: 340890970 heartbeat IPC: 1.17407 cumulative IPC: 1.20435 (Simulation time: 1 hr 2 min 15 sec) 
Heartbeat CPU 0 instructions: 770000002 cycles: 349138089 heartbeat IPC: 1.21254 cumulative IPC: 1.20465 (Simulation time: 1 hr 2 min 59 sec) 
Heartbeat CPU 0 instructions: 780000000 cycles: 357333514 heartbeat IPC: 1.22019 cumulative IPC: 1.2052 (Simulation time: 1 hr 3 min 41 sec) 
Heartbeat CPU 0 instructions: 790000003 cycles: 365514675 heartbeat IPC: 1.22232 cumulative IPC: 1.20578 (Simulation time: 1 hr 4 min 28 sec) 
Heartbeat CPU 0 instructions: 800000002 cycles: 373732030 heartbeat IPC: 1.21694 cumulative IPC: 1.20615 (Simulation time: 1 hr 5 min 14 sec) 
Heartbeat CPU 0 instructions: 810000000 cycles: 382053377 heartbeat IPC: 1.20173 cumulative IPC: 1.206 (Simulation time: 1 hr 5 min 58 sec) 
Heartbeat CPU 0 instructions: 820000002 cycles: 390264776 heartbeat IPC: 1.21782 cumulative IPC: 1.20637 (Simulation time: 1 hr 6 min 45 sec) 
Heartbeat CPU 0 instructions: 830000000 cycles: 398570461 heartbeat IPC: 1.20399 cumulative IPC: 1.2063 (Simulation time: 1 hr 7 min 34 sec) 
Heartbeat CPU 0 instructions: 840000001 cycles: 407013401 heartbeat IPC: 1.18442 cumulative IPC: 1.20564 (Simulation time: 1 hr 8 min 19 sec) 
Heartbeat CPU 0 instructions: 850000002 cycles: 415412659 heartbeat IPC: 1.19058 cumulative IPC: 1.20521 (Simulation time: 1 hr 8 min 58 sec) 
Heartbeat CPU 0 instructions: 860000000 cycles: 423762895 heartbeat IPC: 1.19757 cumulative IPC: 1.20499 (Simulation time: 1 hr 9 min 36 sec) 
Heartbeat CPU 0 instructions: 870000002 cycles: 432104254 heartbeat IPC: 1.19885 cumulative IPC: 1.20483 (Simulation time: 1 hr 10 min 22 sec) 
Heartbeat CPU 0 instructions: 880000000 cycles: 440518180 heartbeat IPC: 1.18851 cumulative IPC: 1.20439 (Simulation time: 1 hr 11 min 6 sec) 
Heartbeat CPU 0 instructions: 890000004 cycles: 448752353 heartbeat IPC: 1.21445 cumulative IPC: 1.20465 (Simulation time: 1 hr 11 min 36 sec) 
Heartbeat CPU 0 instructions: 900000004 cycles: 457075219 heartbeat IPC: 1.20151 cumulative IPC: 1.20457 (Simulation time: 1 hr 12 min 15 sec) 
Heartbeat CPU 0 instructions: 910000000 cycles: 465418208 heartbeat IPC: 1.19861 cumulative IPC: 1.20442 (Simulation time: 1 hr 13 min 1 sec) 
Heartbeat CPU 0 instructions: 920000001 cycles: 473774078 heartbeat IPC: 1.19676 cumulative IPC: 1.20424 (Simulation time: 1 hr 13 min 45 sec) 
Heartbeat CPU 0 instructions: 930000004 cycles: 481993284 heartbeat IPC: 1.21666 cumulative IPC: 1.20452 (Simulation time: 1 hr 14 min 33 sec) 
Heartbeat CPU 0 instructions: 940000000 cycles: 490321342 heartbeat IPC: 1.20076 cumulative IPC: 1.20444 (Simulation time: 1 hr 15 min 21 sec) 
Heartbeat CPU 0 instructions: 950000004 cycles: 498650203 heartbeat IPC: 1.20064 cumulative IPC: 1.20435 (Simulation time: 1 hr 16 min 0 sec) 
Heartbeat CPU 0 instructions: 960000002 cycles: 506927494 heartbeat IPC: 1.20812 cumulative IPC: 1.20444 (Simulation time: 1 hr 16 min 40 sec) 
Heartbeat CPU 0 instructions: 970000003 cycles: 515128784 heartbeat IPC: 1.21932 cumulative IPC: 1.20475 (Simulation time: 1 hr 17 min 23 sec) 
Heartbeat CPU 0 instructions: 980000000 cycles: 523369309 heartbeat IPC: 1.21351 cumulative IPC: 1.20493 (Simulation time: 1 hr 18 min 1 sec) 
Heartbeat CPU 0 instructions: 990000004 cycles: 531643412 heartbeat IPC: 1.20859 cumulative IPC: 1.205 (Simulation time: 1 hr 18 min 40 sec) 
Heartbeat CPU 0 instructions: 1000000004 cycles: 539917912 heartbeat IPC: 1.20853 cumulative IPC: 1.20508 (Simulation time: 1 hr 19 min 15 sec) 
Heartbeat CPU 0 instructions: 1010000003 cycles: 548222087 heartbeat IPC: 1.20421 cumulative IPC: 1.20506 (Simulation time: 1 hr 20 min 1 sec) 
Heartbeat CPU 0 instructions: 1020000002 cycles: 556356329 heartbeat IPC: 1.22937 cumulative IPC: 1.20552 (Simulation time: 1 hr 20 min 40 sec) 
Heartbeat CPU 0 instructions: 1030000002 cycles: 564573691 heartbeat IPC: 1.21694 cumulative IPC: 1.20573 (Simulation time: 1 hr 21 min 18 sec) 
Heartbeat CPU 0 instructions: 1040000003 cycles: 572828450 heartbeat IPC: 1.21142 cumulative IPC: 1.20584 (Simulation time: 1 hr 21 min 56 sec) 
Heartbeat CPU 0 instructions: 1050000000 cycles: 581044599 heartbeat IPC: 1.21711 cumulative IPC: 1.20604 (Simulation time: 1 hr 22 min 40 sec) 
Heartbeat CPU 0 instructions: 1060000000 cycles: 589218928 heartbeat IPC: 1.22334 cumulative IPC: 1.20634 (Simulation time: 1 hr 23 min 20 sec) 
Heartbeat CPU 0 instructions: 1070000003 cycles: 597258236 heartbeat IPC: 1.24389 cumulative IPC: 1.20698 (Simulation time: 1 hr 24 min 3 sec) 
Heartbeat CPU 0 instructions: 1080000001 cycles: 605261858 heartbeat IPC: 1.24943 cumulative IPC: 1.20769 (Simulation time: 1 hr 24 min 49 sec) 
Heartbeat CPU 0 instructions: 1090000002 cycles: 613404326 heartbeat IPC: 1.22813 cumulative IPC: 1.20803 (Simulation time: 1 hr 25 min 36 sec) 
Heartbeat CPU 0 instructions: 1100000001 cycles: 621810166 heartbeat IPC: 1.18965 cumulative IPC: 1.20772 (Simulation time: 1 hr 26 min 16 sec) 
Heartbeat CPU 0 instructions: 1110000003 cycles: 630120771 heartbeat IPC: 1.20328 cumulative IPC: 1.20765 (Simulation time: 1 hr 27 min 1 sec) 
Heartbeat CPU 0 instructions: 1120000000 cycles: 638539213 heartbeat IPC: 1.18787 cumulative IPC: 1.20732 (Simulation time: 1 hr 27 min 49 sec) 
Heartbeat CPU 0 instructions: 1130000000 cycles: 646823184 heartbeat IPC: 1.20715 cumulative IPC: 1.20732 (Simulation time: 1 hr 28 min 36 sec) 
Heartbeat CPU 0 instructions: 1140000002 cycles: 655164539 heartbeat IPC: 1.19885 cumulative IPC: 1.20719 (Simulation time: 1 hr 29 min 22 sec) 
Heartbeat CPU 0 instructions: 1150000000 cycles: 663405416 heartbeat IPC: 1.21346 cumulative IPC: 1.20728 (Simulation time: 1 hr 29 min 57 sec) 
Heartbeat CPU 0 instructions: 1160000001 cycles: 671684788 heartbeat IPC: 1.20782 cumulative IPC: 1.20729 (Simulation time: 1 hr 30 min 41 sec) 
Heartbeat CPU 0 instructions: 1170000002 cycles: 679978286 heartbeat IPC: 1.20576 cumulative IPC: 1.20727 (Simulation time: 1 hr 31 min 28 sec) 
Heartbeat CPU 0 instructions: 1180000001 cycles: 688229345 heartbeat IPC: 1.21197 cumulative IPC: 1.20734 (Simulation time: 1 hr 32 min 15 sec) 
Heartbeat CPU 0 instructions: 1190000001 cycles: 696510581 heartbeat IPC: 1.20755 cumulative IPC: 1.20734 (Simulation time: 1 hr 32 min 50 sec) 
Heartbeat CPU 0 instructions: 1200000002 cycles: 704717758 heartbeat IPC: 1.21845 cumulative IPC: 1.2075 (Simulation time: 1 hr 33 min 30 sec) 
Heartbeat CPU 0 instructions: 1210000000 cycles: 713151329 heartbeat IPC: 1.18574 cumulative IPC: 1.20718 (Simulation time: 1 hr 34 min 8 sec) 
Heartbeat CPU 0 instructions: 1220000000 cycles: 721694607 heartbeat IPC: 1.17051 cumulative IPC: 1.20666 (Simulation time: 1 hr 34 min 57 sec) 
Heartbeat CPU 0 instructions: 1230000002 cycles: 730216950 heartbeat IPC: 1.17339 cumulative IPC: 1.20619 (Simulation time: 1 hr 35 min 43 sec) 
Heartbeat CPU 0 instructions: 1240000002 cycles: 738767263 heartbeat IPC: 1.16955 cumulative IPC: 1.20568 (Simulation time: 1 hr 36 min 32 sec) 
Heartbeat CPU 0 instructions: 1250000000 cycles: 747098980 heartbeat IPC: 1.20023 cumulative IPC: 1.20561 (Simulation time: 1 hr 37 min 20 sec) 
Heartbeat CPU 0 instructions: 1260000001 cycles: 755446124 heartbeat IPC: 1.19801 cumulative IPC: 1.20551 (Simulation time: 1 hr 38 min 8 sec) 
Heartbeat CPU 0 instructions: 1270000002 cycles: 763710795 heartbeat IPC: 1.20997 cumulative IPC: 1.20556 (Simulation time: 1 hr 38 min 50 sec) 
Heartbeat CPU 0 instructions: 1280000001 cycles: 772072635 heartbeat IPC: 1.19591 cumulative IPC: 1.20544 (Simulation time: 1 hr 39 min 36 sec) 
Heartbeat CPU 0 instructions: 1290000003 cycles: 780408457 heartbeat IPC: 1.19964 cumulative IPC: 1.20537 (Simulation time: 1 hr 40 min 25 sec) 
Heartbeat CPU 0 instructions: 1300000004 cycles: 788778021 heartbeat IPC: 1.19481 cumulative IPC: 1.20523 (Simulation time: 1 hr 41 min 10 sec) 
Heartbeat CPU 0 instructions: 1310000002 cycles: 797186431 heartbeat IPC: 1.18929 cumulative IPC: 1.20503 (Simulation time: 1 hr 41 min 58 sec) 
Heartbeat CPU 0 instructions: 1320000004 cycles: 805545367 heartbeat IPC: 1.19632 cumulative IPC: 1.20493 (Simulation time: 1 hr 42 min 45 sec) 
Heartbeat CPU 0 instructions: 1330000001 cycles: 813948175 heartbeat IPC: 1.19008 cumulative IPC: 1.20475 (Simulation time: 1 hr 43 min 32 sec) 
Heartbeat CPU 0 instructions: 1340000003 cycles: 822407788 heartbeat IPC: 1.18209 cumulative IPC: 1.20447 (Simulation time: 1 hr 44 min 19 sec) 
Heartbeat CPU 0 instructions: 1350000000 cycles: 830746586 heartbeat IPC: 1.19921 cumulative IPC: 1.20441 (Simulation time: 1 hr 45 min 7 sec) 
Heartbeat CPU 0 instructions: 1360000000 cycles: 839139451 heartbeat IPC: 1.19149 cumulative IPC: 1.20426 (Simulation time: 1 hr 45 min 54 sec) 
Heartbeat CPU 0 instructions: 1370000004 cycles: 847533173 heartbeat IPC: 1.19137 cumulative IPC: 1.20411 (Simulation time: 1 hr 46 min 40 sec) 
Heartbeat CPU 0 instructions: 1380000003 cycles: 856057081 heartbeat IPC: 1.17317 cumulative IPC: 1.20375 (Simulation time: 1 hr 47 min 28 sec) 
Heartbeat CPU 0 instructions: 1390000003 cycles: 864579053 heartbeat IPC: 1.17344 cumulative IPC: 1.2034 (Simulation time: 1 hr 48 min 17 sec) 
Heartbeat CPU 0 instructions: 1400000004 cycles: 873069653 heartbeat IPC: 1.17777 cumulative IPC: 1.20311 (Simulation time: 1 hr 48 min 59 sec) 
Heartbeat CPU 0 instructions: 1410000002 cycles: 881368588 heartbeat IPC: 1.20497 cumulative IPC: 1.20313 (Simulation time: 1 hr 49 min 32 sec) 
Heartbeat CPU 0 instructions: 1420000002 cycles: 889768349 heartbeat IPC: 1.19051 cumulative IPC: 1.20299 (Simulation time: 1 hr 50 min 1 sec) 
Heartbeat CPU 0 instructions: 1430000000 cycles: 898126945 heartbeat IPC: 1.19637 cumulative IPC: 1.20292 (Simulation time: 1 hr 50 min 32 sec) 
Heartbeat CPU 0 instructions: 1440000002 cycles: 906539447 heartbeat IPC: 1.18871 cumulative IPC: 1.20276 (Simulation time: 1 hr 51 min 4 sec) 
Heartbeat CPU 0 instructions: 1450000002 cycles: 914791681 heartbeat IPC: 1.21179 cumulative IPC: 1.20286 (Simulation time: 1 hr 51 min 49 sec) 
Heartbeat CPU 0 instructions: 1460000000 cycles: 923027434 heartbeat IPC: 1.21422 cumulative IPC: 1.20298 (Simulation time: 1 hr 52 min 36 sec) 
Heartbeat CPU 0 instructions: 1470000000 cycles: 931323276 heartbeat IPC: 1.20542 cumulative IPC: 1.203 (Simulation time: 1 hr 53 min 23 sec) 
Heartbeat CPU 0 instructions: 1480000004 cycles: 939506926 heartbeat IPC: 1.22195 cumulative IPC: 1.20319 (Simulation time: 1 hr 54 min 6 sec) 
Heartbeat CPU 0 instructions: 1490000003 cycles: 947788379 heartbeat IPC: 1.20752 cumulative IPC: 1.20323 (Simulation time: 1 hr 54 min 53 sec) 
Heartbeat CPU 0 instructions: 1500000003 cycles: 956020095 heartbeat IPC: 1.21481 cumulative IPC: 1.20335 (Simulation time: 1 hr 55 min 36 sec) 
Heartbeat CPU 0 instructions: 1510000000 cycles: 964261208 heartbeat IPC: 1.21343 cumulative IPC: 1.20345 (Simulation time: 1 hr 56 min 18 sec) 
Heartbeat CPU 0 instructions: 1520000004 cycles: 972569301 heartbeat IPC: 1.20365 cumulative IPC: 1.20345 (Simulation time: 1 hr 56 min 58 sec) 
Heartbeat CPU 0 instructions: 1530000004 cycles: 981058338 heartbeat IPC: 1.17799 cumulative IPC: 1.2032 (Simulation time: 1 hr 57 min 41 sec) 
Heartbeat CPU 0 instructions: 1540000001 cycles: 989413405 heartbeat IPC: 1.19688 cumulative IPC: 1.20314 (Simulation time: 1 hr 58 min 19 sec) 
Heartbeat CPU 0 instructions: 1550000000 cycles: 997535715 heartbeat IPC: 1.23118 cumulative IPC: 1.2034 (Simulation time: 1 hr 58 min 51 sec) 
Heartbeat CPU 0 instructions: 1560000001 cycles: 1005651106 heartbeat IPC: 1.23223 cumulative IPC: 1.20366 (Simulation time: 1 hr 59 min 21 sec) 
Heartbeat CPU 0 instructions: 1570000002 cycles: 1013915793 heartbeat IPC: 1.20997 cumulative IPC: 1.20372 (Simulation time: 1 hr 59 min 59 sec) 
Heartbeat CPU 0 instructions: 1580000003 cycles: 1022272852 heartbeat IPC: 1.19659 cumulative IPC: 1.20366 (Simulation time: 2 hr 0 min 36 sec) 
Heartbeat CPU 0 instructions: 1590000003 cycles: 1030564975 heartbeat IPC: 1.20596 cumulative IPC: 1.20368 (Simulation time: 2 hr 1 min 11 sec) 
Heartbeat CPU 0 instructions: 1600000001 cycles: 1038897301 heartbeat IPC: 1.20014 cumulative IPC: 1.20364 (Simulation time: 2 hr 1 min 46 sec) 
Heartbeat CPU 0 instructions: 1610000001 cycles: 1047123956 heartbeat IPC: 1.21556 cumulative IPC: 1.20375 (Simulation time: 2 hr 2 min 29 sec) 
Heartbeat CPU 0 instructions: 1620000003 cycles: 1055422572 heartbeat IPC: 1.20502 cumulative IPC: 1.20376 (Simulation time: 2 hr 3 min 5 sec) 
Heartbeat CPU 0 instructions: 1630000004 cycles: 1063555363 heartbeat IPC: 1.22959 cumulative IPC: 1.20399 (Simulation time: 2 hr 3 min 36 sec) 
Heartbeat CPU 0 instructions: 1640000001 cycles: 1071831095 heartbeat IPC: 1.20835 cumulative IPC: 1.20402 (Simulation time: 2 hr 4 min 7 sec) 
Heartbeat CPU 0 instructions: 1650000000 cycles: 1080190908 heartbeat IPC: 1.1962 cumulative IPC: 1.20396 (Simulation time: 2 hr 4 min 51 sec) 
Heartbeat CPU 0 instructions: 1660000001 cycles: 1088585279 heartbeat IPC: 1.19127 cumulative IPC: 1.20384 (Simulation time: 2 hr 5 min 23 sec) 
Heartbeat CPU 0 instructions: 1670000001 cycles: 1096838067 heartbeat IPC: 1.21171 cumulative IPC: 1.20391 (Simulation time: 2 hr 6 min 3 sec) 
Heartbeat CPU 0 instructions: 1680000001 cycles: 1105204334 heartbeat IPC: 1.19528 cumulative IPC: 1.20384 (Simulation time: 2 hr 6 min 46 sec) 
Heartbeat CPU 0 instructions: 1690000002 cycles: 1113555432 heartbeat IPC: 1.19745 cumulative IPC: 1.20378 (Simulation time: 2 hr 7 min 27 sec) 
Heartbeat CPU 0 instructions: 1700000000 cycles: 1121859041 heartbeat IPC: 1.2043 cumulative IPC: 1.20379 (Simulation time: 2 hr 8 min 16 sec) 
Heartbeat CPU 0 instructions: 1710000004 cycles: 1130193170 heartbeat IPC: 1.19989 cumulative IPC: 1.20376 (Simulation time: 2 hr 8 min 51 sec) 
Heartbeat CPU 0 instructions: 1720000000 cycles: 1138511580 heartbeat IPC: 1.20215 cumulative IPC: 1.20374 (Simulation time: 2 hr 9 min 31 sec) 
Heartbeat CPU 0 instructions: 1730000001 cycles: 1146848515 heartbeat IPC: 1.19948 cumulative IPC: 1.20371 (Simulation time: 2 hr 10 min 4 sec) 
Heartbeat CPU 0 instructions: 1740000003 cycles: 1155167473 heartbeat IPC: 1.20207 cumulative IPC: 1.20369 (Simulation time: 2 hr 10 min 39 sec) 
Heartbeat CPU 0 instructions: 1750000000 cycles: 1163440636 heartbeat IPC: 1.20873 cumulative IPC: 1.20373 (Simulation time: 2 hr 11 min 16 sec) 
Heartbeat CPU 0 instructions: 1760000002 cycles: 1171734001 heartbeat IPC: 1.20578 cumulative IPC: 1.20375 (Simulation time: 2 hr 11 min 55 sec) 
Heartbeat CPU 0 instructions: 1770000004 cycles: 1179973353 heartbeat IPC: 1.21369 cumulative IPC: 1.20383 (Simulation time: 2 hr 12 min 41 sec) 
Heartbeat CPU 0 instructions: 1780000003 cycles: 1188238569 heartbeat IPC: 1.20989 cumulative IPC: 1.20388 (Simulation time: 2 hr 13 min 27 sec) 
Heartbeat CPU 0 instructions: 1790000000 cycles: 1196550622 heartbeat IPC: 1.20307 cumulative IPC: 1.20387 (Simulation time: 2 hr 14 min 13 sec) 
Heartbeat CPU 0 instructions: 1800000000 cycles: 1204844511 heartbeat IPC: 1.20571 cumulative IPC: 1.20388 (Simulation time: 2 hr 14 min 47 sec) 
Heartbeat CPU 0 instructions: 1810000002 cycles: 1213167006 heartbeat IPC: 1.20156 cumulative IPC: 1.20387 (Simulation time: 2 hr 15 min 27 sec) 
Heartbeat CPU 0 instructions: 1820000000 cycles: 1221477269 heartbeat IPC: 1.20333 cumulative IPC: 1.20386 (Simulation time: 2 hr 16 min 5 sec) 
Heartbeat CPU 0 instructions: 1830000003 cycles: 1229714655 heartbeat IPC: 1.21398 cumulative IPC: 1.20394 (Simulation time: 2 hr 16 min 47 sec) 
Heartbeat CPU 0 instructions: 1840000000 cycles: 1237968495 heartbeat IPC: 1.21156 cumulative IPC: 1.20399 (Simulation time: 2 hr 17 min 30 sec) 
Heartbeat CPU 0 instructions: 1850000000 cycles: 1246210407 heartbeat IPC: 1.21331 cumulative IPC: 1.20406 (Simulation time: 2 hr 18 min 15 sec) 
Heartbeat CPU 0 instructions: 1860000002 cycles: 1254340385 heartbeat IPC: 1.23002 cumulative IPC: 1.20425 (Simulation time: 2 hr 18 min 53 sec) 
Heartbeat CPU 0 instructions: 1870000004 cycles: 1262452736 heartbeat IPC: 1.23269 cumulative IPC: 1.20445 (Simulation time: 2 hr 19 min 36 sec) 
Heartbeat CPU 0 instructions: 1880000000 cycles: 1270515623 heartbeat IPC: 1.24025 cumulative IPC: 1.2047 (Simulation time: 2 hr 20 min 22 sec) 
Heartbeat CPU 0 instructions: 1890000001 cycles: 1278818804 heartbeat IPC: 1.20436 cumulative IPC: 1.2047 (Simulation time: 2 hr 21 min 6 sec) 
Heartbeat CPU 0 instructions: 1900000000 cycles: 1287202936 heartbeat IPC: 1.19273 cumulative IPC: 1.20462 (Simulation time: 2 hr 21 min 54 sec) 
Heartbeat CPU 0 instructions: 1910000001 cycles: 1295555465 heartbeat IPC: 1.19724 cumulative IPC: 1.20456 (Simulation time: 2 hr 22 min 41 sec) 
Heartbeat CPU 0 instructions: 1920000004 cycles: 1303819853 heartbeat IPC: 1.21001 cumulative IPC: 1.2046 (Simulation time: 2 hr 23 min 28 sec) 
Heartbeat CPU 0 instructions: 1930000000 cycles: 1312024218 heartbeat IPC: 1.21886 cumulative IPC: 1.2047 (Simulation time: 2 hr 24 min 9 sec) 
Heartbeat CPU 0 instructions: 1940000001 cycles: 1320319370 heartbeat IPC: 1.20552 cumulative IPC: 1.2047 (Simulation time: 2 hr 24 min 48 sec) 
Heartbeat CPU 0 instructions: 1950000000 cycles: 1328545160 heartbeat IPC: 1.21569 cumulative IPC: 1.20478 (Simulation time: 2 hr 25 min 17 sec) 
Heartbeat CPU 0 instructions: 1960000004 cycles: 1336745198 heartbeat IPC: 1.21951 cumulative IPC: 1.20488 (Simulation time: 2 hr 25 min 54 sec) 
Heartbeat CPU 0 instructions: 1970000000 cycles: 1344997861 heartbeat IPC: 1.21173 cumulative IPC: 1.20493 (Simulation time: 2 hr 26 min 31 sec) 
Heartbeat CPU 0 instructions: 1980000002 cycles: 1353286770 heartbeat IPC: 1.20643 cumulative IPC: 1.20494 (Simulation time: 2 hr 27 min 9 sec) 
Heartbeat CPU 0 instructions: 1990000002 cycles: 1361604863 heartbeat IPC: 1.2022 cumulative IPC: 1.20492 (Simulation time: 2 hr 27 min 53 sec) 
*** Reached end of trace: traces/648.exchange2_s-1511B.champsimtrace.xz
Heartbeat CPU 0 instructions: 2000000001 cycles: 1369803376 heartbeat IPC: 1.21973 cumulative IPC: 1.20502 (Simulation time: 2 hr 28 min 41 sec) 
Finished CPU 0 instructions: 1500000004 cycles: 1244797357 cumulative IPC: 1.20502 (Simulation time: 2 hr 28 min 41 sec) 

ChampSim completed all CPUs

Region of Interest Statistics

CPU 0 cumulative IPC: 1.20502 instructions: 1500000004 cycles: 1244797357
cpu0_DTLB TOTAL     ACCESS:  226505257  HIT:  226505257  MISS:          0
cpu0_DTLB LOAD      ACCESS:  107063940  HIT:  107063940  MISS:          0
cpu0_DTLB RFO       ACCESS:  119441317  HIT:  119441317  MISS:          0
cpu0_DTLB PREFETCH  ACCESS:          0  HIT:          0  MISS:          0
cpu0_DTLB WRITEBACK ACCESS:          0  HIT:          0  MISS:          0
cpu0_DTLB TRANSLATION ACCESS:          0  HIT:          0  MISS:          0
cpu0_DTLB PREFETCH  REQUESTED:          0  ISSUED:          0  USEFUL:          0  USELESS:          0
cpu0_DTLB AVERAGE MISS LATENCY: -nan cycles
cpu0_ITLB TOTAL     ACCESS:  148765413  HIT:  148765413  MISS:          0
cpu0_ITLB LOAD      ACCESS:  148765413  HIT:  148765413  MISS:          0
cpu0_ITLB RFO       ACCESS:          0  HIT:          0  MISS:          0
cpu0_ITLB PREFETCH  ACCESS:          0  HIT:          0  MISS:          0
cpu0_ITLB WRITEBACK ACCESS:          0  HIT:          0  MISS:          0
cpu0_ITLB TRANSLATION ACCESS:          0  HIT:          0  MISS:          0
cpu0_ITLB PREFETCH  REQUESTED:          0  ISSUED:          0  USEFUL:          0  USELESS:          0
cpu0_ITLB AVERAGE MISS LATENCY: -nan cycles
cpu0_L1I TOTAL     ACCESS:   98208494  HIT:   98155297  MISS:      53197
cpu0_L1I LOAD      ACCESS:   98208494  HIT:   98155297  MISS:      53197
cpu0_L1I RFO       ACCESS:          0  HIT:          0  MISS:          0
cpu0_L1I PREFETCH  ACCESS:          0  HIT:          0  MISS:          0
cpu0_L1I WRITEBACK ACCESS:          0  HIT:          0  MISS:          0
cpu0_L1I TRANSLATION ACCESS:          0  HIT:          0  MISS:          0
cpu0_L1I PREFETCH  REQUESTED:          0  ISSUED:          0  USEFUL:          0  USELESS:          0
cpu0_L1I AVERAGE MISS LATENCY: 11.0971 cycles
cpu0_L1D TOTAL     ACCESS:  415397292  HIT:  415397292  MISS:          0
cpu0_L1D LOAD      ACCESS:  197261786  HIT:  197261786  MISS:          0
cpu0_L1D RFO       ACCESS:  218135506  HIT:  218135506  MISS:          0
cpu0_L1D PREFETCH  ACCESS:          0  HIT:          0  MISS:          0
cpu0_L1D WRITEBACK ACCESS:          0  HIT:          0  MISS:          0
cpu0_L1D TRANSLATION ACCESS:          0  HIT:          0  MISS:          0
cpu0_L1D PREFETCH  REQUESTED:          0  ISSUED:          0  USEFUL:          0  USELESS:          0
cpu0_L1D AVERAGE MISS LATENCY: -nan cycles
cpu0_L2C TOTAL     ACCESS:      53197  HIT:      53163  MISS:         34
cpu0_L2C LOAD      ACCESS:      53197  HIT:      53163  MISS:         34
cpu0_L2C RFO       ACCESS:          0  HIT:          0  MISS:          0
cpu0_L2C PREFETCH  ACCESS:          0  HIT:          0  MISS:          0
cpu0_L2C WRITEBACK ACCESS:          0  HIT:          0  MISS:          0
cpu0_L2C TRANSLATION ACCESS:          0  HIT:          0  MISS:          0
cpu0_L2C PREFETCH  REQUESTED:          0  ISSUED:          0  USEFUL:          0  USELESS:          0
cpu0_L2C AVERAGE MISS LATENCY: 152 cycles
LLC TOTAL     ACCESS:         34  HIT:          0  MISS:         34
LLC LOAD      ACCESS:         34  HIT:          0  MISS:         34
LLC RFO       ACCESS:          0  HIT:          0  MISS:          0
LLC PREFETCH  ACCESS:          0  HIT:          0  MISS:          0
LLC WRITEBACK ACCESS:          0  HIT:          0  MISS:          0
LLC TRANSLATION ACCESS:          0  HIT:          0  MISS:          0
LLC PREFETCH  REQUESTED:          0  ISSUED:          0  USEFUL:          0  USELESS:          0
LLC AVERAGE MISS LATENCY: 131 cycles
~~~~~~~~~~Reuse Distance Profiler output~~~~~~~~~~
0	159773568	37537552
1	65421904	18508480
2	35689072	13689072
3	27673584	9709696
4	19710400	8128096
5	18294448	7972704
6	14658032	5637504
7	11025632	4936816
8	7737840	3876496
9	6010832	3298240
10	6130560	2883312
11	5031168	3423056
12	5131296	3723856
13	4743296	3248592
14	4268976	3248704
15	2994944	1963280
16	3122544	2366096
17	2483584	1556656
18	2614048	1947424
19	2080192	1646368
20	1927344	1380784
21	2267344	1892128
22	1811024	1534160
23	2139728	1759024
24	1609568	1334544
25	1370000	1066912
26	1394704	1040288
27	1946416	1314544
28	1173216	949360
29	1034384	768032
30	1138912	932560
31	1000576	856464
32	1349312	1180816
33	1116752	684480
34	972944	723184
35	1175056	988128
36	800352	571136
37	822288	651328
38	869744	613584
39	940560	775616
40	806944	606672
41	933920	761040
42	671344	469408
43	932816	730496
44	975504	774512
45	1155968	973072
46	1013488	833760
47	914848	702640
48	775552	552544
49	1055664	844448
50	1283536	1089712
51	967552	762640
52	883088	695024
53	745104	499136
54	886832	649088
55	970496	746672
56	777376	538528
57	984528	730048
58	894752	623264
59	813952	531312
60	852512	535296
61	824176	544944
62	620112	350640
63	626576	361344
64	1392048	831152
66	1478416	898224
68	1119200	632208
70	1353040	852096
72	1335600	833472
74	1264848	807232
76	986080	526448
78	1039248	589584
80	973040	540800
82	1009648	528624
84	1062224	632944
86	1047136	613952
88	937200	563104
90	904688	557120
92	779536	449440
94	808544	471104
96	846304	486560
98	853216	544096
100	816704	477616
102	816112	465680
104	777776	477584
106	859088	582704
108	807040	540848
110	807152	556448
112	874528	615248
114	667328	406000
116	608288	399968
118	588880	414016
120	679360	492032
122	490912	349216
124	439408	310784
126	504240	405680
128	758256	613392
132	831776	664560
136	809856	716720
140	811696	707488
144	810672	733856
148	745072	667120
152	815872	688848
156	921936	839776
160	846176	773776
164	895360	814800
168	856720	785088
172	810272	761536
176	761040	705952
180	742288	683824
184	664032	607504
188	669168	618496
192	748048	678592
196	839808	764912
200	720272	663856
204	608208	540224
208	653824	575280
212	687472	582016
216	694000	604896
220	695152	601984
224	834464	759232
228	726832	657504
232	660992	586112
236	637376	569152
240	697744	642368
244	668464	613728
248	727008	671968
252	649328	597376
256	1208176	1098768
264	1213888	1115072
272	1191776	1083680
280	1329488	1168864
288	1159920	1014800
296	1071744	947728
304	1125248	1004240
312	922144	814768
320	958640	852384
328	991184	889200
336	872032	790624
344	874096	782784
352	818576	729232
360	859008	754064
368	804528	714784
376	813808	704208
384	767056	660624
392	802880	690704
400	730176	607120
408	684464	573856
416	657904	531856
424	655888	530816
432	697664	580528
440	644944	543056
448	643792	545248
456	629520	537072
464	520752	442192
472	524448	433232
480	504496	413168
488	449856	375488
496	417632	350096
504	413088	346144
512	815216	675200
528	766896	646704
544	683728	561184
560	641200	515840
576	622352	505056
592	569648	467584
608	521728	428144
624	446912	357440
640	461600	369008
656	445296	354432
672	442688	341552
688	403808	315744
704	407248	328752
720	382800	315072
736	323744	259600
752	315056	250112
768	323008	254016
784	336736	265488
800	324368	260640
816	290528	229584
832	269088	205936
848	249552	184560
864	247488	190832
880	237824	180784
896	222560	172256
912	209024	162960
928	189776	149312
944	185440	143200
960	171984	131408
976	167856	127920
992	170704	128608
1008	158816	120816
1024	311664	234512
1056	283920	213584
1088	297296	218080
1120	285920	209472
1152	255296	186000
1184	221264	158304
1216	215024	153712
1248	195232	141696
1280	181120	134240
1312	173488	126272
1344	168384	126528
1376	159936	116624
1408	161984	119024
1440	157040	113072
1472	142944	100048
1504	127424	90464
1536	129152	91072
1568	115408	82016
1600	107280	75024
1632	109728	77280
1664	108640	76720
1696	103392	72960
1728	93120	65360
1760	88320	61424
1792	85968	59776
1824	82128	58272
1856	86160	63168
1888	75568	54272
1920	70672	49408
1952	73120	50560
1984	68016	47312
2016	63216	43072
2048	128768	90896
2112	121456	86384
2176	115536	80576
2240	113856	82336
2304	101088	72848
2368	103808	76240
2432	99488	71664
2496	95008	68240
2560	85952	61328
2624	83312	59424
2688	83488	58848
2752	79024	57216
2816	80704	60240
2880	78272	57984
2944	73984	54592
3008	73360	54512
3072	67808	49696
3136	66320	49408
3200	65152	49280
3264	65776	49760
3328	61152	43728
3392	60688	44512
3456	59696	44784
3520	58688	42304
3584	51776	37568
3648	50656	35104
3712	52672	37712
3776	48208	34192
3840	48832	35136
3904	48208	34048
3968	45136	32384
4032	44080	30784
4096	85104	60736
4224	80032	54528
4352	72288	49200
4480	65600	44592
4608	61776	40512
4736	60896	38816
4864	61792	40000
4992	56352	36720
5120	50320	31712
5248	49360	30336
5376	49264	30000
5504	46336	28560
5632	42080	26096
5760	40448	24864
5888	39456	24528
6016	38000	23360
6144	37728	23312
6272	34400	22176
6400	33840	21040
6528	31360	19472
6656	28896	17632
6784	28672	16256
6912	28896	16624
7040	29200	17136
7168	27488	16416
7296	25728	14608
7424	23632	13248
7552	23408	13312
7680	20560	11504
7808	19728	11280
7936	18176	10544
8064	18448	10528
8192	33232	19232
8448	31408	17248
8704	29728	15440
8960	26464	14736
9216	24960	13872
9472	23040	11328
9728	21456	11088
9984	19088	9616
10240	18448	8864
10496	16128	7600
10752	16528	7936
11008	15840	7280
11264	15744	7616
11520	13952	6608
11776	14544	7184
12032	12992	5872
12288	13040	5952
12544	12528	5936
12800	11376	5296
13056	10496	4768
13312	12528	5552
13568	10704	4848
13824	10320	4560
14080	10912	5104
14336	8896	3824
14592	9280	4656
14848	8704	3728
15104	8560	4080
15360	8176	3696
15616	7872	3360
15872	8656	3456
16128	7248	2928
16384	14464	5888
16896	13120	5440
17408	12736	5040
17920	12096	4592
18432	10752	4336
18944	10496	4240
19456	10512	4704
19968	10480	4320
20480	9952	4576
20992	8864	3264
21504	8416	3424
22016	7984	3216
22528	7040	2800
23040	7024	2608
23552	6736	2656
24064	6288	2592
24576	6176	2384
25088	6368	2224
25600	5504	2112
26112	5216	2048
26624	5296	1712
27136	5296	2064
27648	4864	1616
28160	5200	1600
28672	4944	1728
29184	4336	1216
29696	4336	1520
30208	4400	1552
30720	4576	1744
31232	4192	1456
31744	3408	1104
32256	4192	1424
32768	6880	2544
33792	7088	2560
34816	7440	2896
35840	6624	2768
36864	5056	1712
37888	5392	1744
38912	6288	2576
39936	4752	1904
40960	4640	1792
41984	5056	1632
43008	4320	1488
44032	4352	1424
45056	3856	1264
46080	3904	1056
47104	3360	912
48128	3264	1024
49152	3104	1040
50176	3008	1184
51200	2896	720
52224	2640	976
53248	2576	704
54272	2672	768
55296	2128	624
56320	2288	640
57344	2416	800
58368	1968	560
59392	2112	672
60416	1680	576
61440	1568	432
62464	1680	544
63488	1376	464
64512	1504	352
65536	3136	1152
67584	3008	1024
69632	2720	1024
71680	2272	896
73728	2448	1008
75776	2448	848
77824	1936	864
79872	2096	832
81920	1920	560
83968	1872	768
86016	1456	560
88064	1360	528
90112	1664	640
92160	1648	768
94208	1536	624
96256	1168	448
98304	1520	640
100352	1184	496
102400	1424	576
104448	1088	400
106496	1312	560
108544	1024	576
110592	912	320
112640	1024	576
114688	976	448
116736	848	400
118784	800	352
120832	816	384
122880	800	400
124928	752	448
126976	736	448
129024	560	288
131072	1200	544
135168	992	512
139264	1168	448
143360	1088	368
147456	1408	544
151552	1152	432
155648	1264	400
159744	1152	560
163840	1376	560
167936	848	320
172032	800	368
176128	720	368
180224	928	496
184320	512	144
188416	656	288
192512	448	224
196608	448	304
200704	304	192
204800	448	224
208896	304	160
212992	496	368
217088	256	176
221184	288	144
225280	272	176
229376	416	160
233472	528	272
237568	192	176
241664	352	208
245760	256	176
249856	272	176
253952	448	272
258048	320	224
262144	608	416
270336	432	320
278528	368	224
286720	256	224
294912	512	320
303104	944	384
311296	832	368
319488	528	288
327680	912	240
335872	960	192
344064	992	256
352256	464	96
360448	464	208
368640	384	224
376832	464	320
385024	256	96
393216	384	208
401408	160	96
409600	416	224
417792	256	208
425984	240	96
434176	320	96
442368	352	256
450560	416	144
458752	256	80
466944	384	192
475136	304	160
483328	208	96
491520	288	144
499712	192	160
507904	208	208
516096	128	112
524288	544	368
540672	336	320
557056	224	224
573440	320	288
589824	208	176
606208	272	272
622592	352	336
638976	208	144
655360	352	320
671744	288	208
688128	96	48
704512	384	272
720896	208	128
737280	256	240
753664	160	128
770048	176	144
786432	176	176
802816	16	16
819200	208	208
835584	368	288
851968	160	144
868352	224	64
884736	208	160
901120	208	176
917504	80	64
933888	48	16
950272	128	112
966656	80	80
983040	48	32
999424	176	160
1015808	160	144
1032192	224	176
1048576	240	128
1081344	288	224
1114112	176	112
1146880	192	144
1179648	256	240
1212416	160	144
1245184	128	112
1277952	96	80
1310720	112	16
1343488	160	96
1376256	144	80
1409024	320	240
1441792	128	128
1474560	112	96
1507328	96	80
1540096	112	112
1572864	96	48
1605632	80	48
1638400	16	16
1671168	48	48
1703936	16	16
1736704	48	48
1769472	64	32
1802240	96	80
1835008	16	16
1867776	48	48
1900544	16	16
1933312	160	112
1966080	16	16
1998848	64	48
2031616	48	0
2064384	32	32
2097152	128	80
2162688	160	96
2228224	80	64
2293760	80	0
2359296	16	16
2424832	64	64
2490368	160	96
2555904	64	16
2621440	16	16
2686976	64	0
2752512	160	96
2818048	96	32
2883584	80	32
2949120	16	16
3014656	240	112
3080192	64	32
3145728	192	112
3211264	96	48
3276800	0	0
3342336	16	16
3407872	16	0
3473408	0	0
3538944	96	32
3604480	64	32
3670016	0	0
3735552	16	16
3801088	16	16
3866624	64	16
3932160	32	16
3997696	16	16
4063232	0	0
4128768	48	32
4194304	32	16
4325376	32	32
4456448	96	48
4587520	0	0
4718592	32	0
4849664	32	16
4980736	80	64
5111808	48	32
5242880	64	16
5373952	80	64
5505024	160	48
5636096	16	16
5767168	96	96
5898240	112	48
6029312	0	0
6160384	0	0
6291456	32	32
6422528	16	0
6553600	32	0
6684672	16	16
6815744	32	16
6946816	128	96
7077888	160	48
7208960	128	96
7340032	144	112
7471104	48	16
7602176	0	0
7733248	16	16
7864320	0	0
7995392	0	0
8126464	32	32
8257536	48	48
8388608	96	64
8650752	32	16
8912896	16	0
9175040	32	16
9437184	64	16
9699328	16	16
9961472	32	0
10223616	48	0
10485760	80	32
10747904	32	32
11010048	48	32
11272192	96	64
11534336	176	64
11796480	112	48
12058624	144	16
12320768	0	0
12582912	16	16
12845056	48	16
13107200	16	0
13369344	48	48
13631488	80	32
13893632	0	0
14155776	0	0
14417920	0	0
14680064	32	32
14942208	16	16
15204352	16	16
15466496	32	0
15728640	16	0
15990784	16	0
16252928	0	0
16515072	0	0
16777216	16	16
17301504	80	48
17825792	48	16
18350080	64	48
18874368	0	0
19398656	0	0
19922944	32	16
20447232	32	16
20971520	0	0
21495808	0	0
22020096	0	0
22544384	0	0
23068672	0	0
23592960	64	16
24117248	0	0
24641536	0	0
25165824	64	0
25690112	0	0
26214400	0	0
26738688	0	0
27262976	0	0
27787264	0	0
28311552	0	0
28835840	0	0
29360128	0	0
29884416	0	0
30408704	0	0
30932992	0	0
31457280	0	0
31981568	0	0
32505856	0	0
33030144	0	0
33554432	0	0
34603008	0	0
35651584	0	0
36700160	80	48
37748736	32	16
38797312	0	0
39845888	0	0
40894464	16	16
41943040	0	0
42991616	16	0
44040192	0	0
45088768	96	16
46137344	48	16
47185920	0	0
48234496	48	16
49283072	0	0
50331648	0	0
51380224	0	0
52428800	0	0
53477376	0	0
54525952	0	0
55574528	0	0
56623104	0	0
57671680	0	0
58720256	0	0
59768832	0	0
60817408	0	0
61865984	0	0
62914560	0	0
63963136	0	0
65011712	0	0
66060288	0	0
67108864	0	0
69206016	0	0
71303168	0	0
73400320	0	0
75497472	0	0
77594624	16	0
79691776	0	0
81788928	0	0
83886080	0	0
85983232	0	0
88080384	16	0
90177536	0	0
92274688	0	0
94371840	0	0
96468992	0	0
98566144	0	0
100663296	0	0
102760448	0	0
104857600	0	0
106954752	0	0
109051904	0	0
111149056	0	0
113246208	0	0
115343360	0	0
117440512	0	0
119537664	0	0
121634816	0	0
123731968	0	0
125829120	0	0
127926272	0	0
130023424	0	0
132120576	0	0
134217728	0	0
138412032	0	0
142606336	0	0
146800640	0	0
150994944	0	0
155189248	0	0
159383552	0	0
163577856	0	0
167772160	0	0
171966464	0	0
176160768	0	0
180355072	0	0
184549376	0	0
188743680	0	0
192937984	0	0
197132288	0	0
201326592	0	0
205520896	0	0
209715200	0	0
213909504	0	0
218103808	0	0
222298112	0	0
226492416	0	0
230686720	0	0
234881024	0	0
239075328	0	0
243269632	0	0
247463936	0	0
251658240	0	0
255852544	0	0
260046848	0	0
264241152	0	0
268435456	0	0
276824064	0	0
285212672	0	0
293601280	0	0
301989888	0	0
310378496	0	0
318767104	0	0
327155712	0	0
335544320	0	0
343932928	0	0
352321536	0	0
360710144	0	0
369098752	0	0
377487360	0	0
385875968	0	0
394264576	0	0
402653184	0	0
411041792	0	0
419430400	0	0
427819008	0	0
436207616	0	0
444596224	0	0
452984832	0	0
461373440	0	0
469762048	0	0
478150656	0	0
486539264	0	0
494927872	0	0
503316480	0	0
511705088	0	0
520093696	0	0
528482304	0	0
536870912	0	0
553648128	0	0
570425344	0	0
587202560	0	0
603979776	0	0
620756992	0	0
637534208	0	0
654311424	0	0
671088640	0	0
687865856	0	0
704643072	0	0
721420288	0	0
738197504	0	0
754974720	0	0
771751936	0	0
788529152	0	0
805306368	0	0
822083584	0	0
838860800	0	0
855638016	0	0
872415232	0	0
889192448	0	0
905969664	0	0
922746880	0	0
939524096	0	0
956301312	0	0
973078528	0	0
989855744	0	0
1006632960	0	0
1023410176	0	0
1040187392	0	0
1056964608	0	0
1073741824	0	0
1107296256	0	0
1140850688	0	0
1174405120	0	0
1207959552	0	0
1241513984	0	0
1275068416	0	0
1308622848	0	0
1342177280	0	0
1375731712	0	0
1409286144	0	0
1442840576	0	0
1476395008	0	0
1509949440	0	0
1543503872	0	0
1577058304	0	0
1610612736	0	0
1644167168	0	0
1677721600	0	0
1711276032	0	0
1744830464	0	0
1778384896	0	0
1811939328	0	0
1845493760	0	0
1879048192	0	0
1912602624	0	0
1946157056	0	0
1979711488	0	0
2013265920	0	0
2046820352	0	0
2080374784	0	0
2113929216	0	0
2147483648	0	0
2214592512	0	0
2281701376	0	0
2348810240	0	0
2415919104	0	0
2483027968	0	0
2550136832	0	0
2617245696	0	0
2684354560	0	0
2751463424	0	0
2818572288	0	0
2885681152	0	0
2952790016	0	0
3019898880	0	0
3087007744	0	0
3154116608	0	0
3221225472	0	0
3288334336	0	0
3355443200	0	0
3422552064	0	0
3489660928	0	0
3556769792	0	0
3623878656	0	0
3690987520	0	0
3758096384	0	0
3825205248	0	0
3892314112	0	0
3959422976	0	0
4026531840	0	0
4093640704	0	0
4160749568	0	0
4227858432	0	0
~~~~~~~~~~Reuse Distance Profiler output end~~~~~~~~~~

DRAM Statistics
 CHANNEL 0
 RQ ROW_BUFFER_HIT:         11  ROW_BUFFER_MISS:         23
 DBUS AVG_CONGESTED_CYCLE:        3.5
 WQ ROW_BUFFER_HIT:          0  ROW_BUFFER_MISS:          0  FULL:          0


CPU 0 Branch Prediction Accuracy: 74.4265% MPKI: 35.4637 Average ROB Occupancy at Mispredict: 11.9747
Branch type MPKI
BRANCH_DIRECT_JUMP: 4e-06
BRANCH_INDIRECT: 0
BRANCH_CONDITIONAL: 35.4637
BRANCH_DIRECT_CALL: 6.66667e-07
BRANCH_INDIRECT_CALL: 0
BRANCH_RETURN: 6.66667e-07

