
*** ChampSim Multicore Out-of-Order Simulator ***

Warmup Instructions: 500000000
Simulation Instructions: 1500000000
Number of CPUs: 1
Off-chip DRAM Size: 4 GiB Channels: 1 Width: 64-bit Data Rate: 3200 MT/s

VirtualMemory physical capacity: 8588881920 num_ppages: 2096895
VirtualMemory page size: 4096 log2_page_size: 12

CPU 0 runs traces/648.exchange2_s-1247B.champsimtrace.xz
CPU 0 Bimodal branch predictor
Basic BTB sets: 1024 ways: 8 indirect buffer size: 4096 RAS size: 64
Initializing LRU.
Initializing LRU.
Initializing LRU.
Initializing LRU.
Initializing rdLRU.
Initializing LRU.
Initializing LRU.
Heartbeat CPU 0 instructions: 10000001 cycles: 2500143 heartbeat IPC: 3.99977 cumulative IPC: 3.99977 (Simulation time: 0 hr 0 min 53 sec) 
Heartbeat CPU 0 instructions: 20000001 cycles: 5000143 heartbeat IPC: 4 cumulative IPC: 3.99989 (Simulation time: 0 hr 1 min 47 sec) 
Heartbeat CPU 0 instructions: 30000001 cycles: 7500143 heartbeat IPC: 4 cumulative IPC: 3.99992 (Simulation time: 0 hr 2 min 41 sec) 
Heartbeat CPU 0 instructions: 40000001 cycles: 10000143 heartbeat IPC: 4 cumulative IPC: 3.99994 (Simulation time: 0 hr 3 min 35 sec) 
Heartbeat CPU 0 instructions: 50000001 cycles: 12500143 heartbeat IPC: 4 cumulative IPC: 3.99995 (Simulation time: 0 hr 4 min 30 sec) 
Heartbeat CPU 0 instructions: 60000002 cycles: 15000293 heartbeat IPC: 3.99976 cumulative IPC: 3.99992 (Simulation time: 0 hr 5 min 26 sec) 
Heartbeat CPU 0 instructions: 70000001 cycles: 17500488 heartbeat IPC: 3.99969 cumulative IPC: 3.99989 (Simulation time: 0 hr 6 min 18 sec) 
Heartbeat CPU 0 instructions: 80000001 cycles: 20000488 heartbeat IPC: 4 cumulative IPC: 3.9999 (Simulation time: 0 hr 7 min 11 sec) 
Heartbeat CPU 0 instructions: 90000001 cycles: 22500488 heartbeat IPC: 4 cumulative IPC: 3.99991 (Simulation time: 0 hr 8 min 2 sec) 
Heartbeat CPU 0 instructions: 100000001 cycles: 25000488 heartbeat IPC: 4 cumulative IPC: 3.99992 (Simulation time: 0 hr 8 min 53 sec) 
Heartbeat CPU 0 instructions: 110000001 cycles: 27500488 heartbeat IPC: 4 cumulative IPC: 3.99993 (Simulation time: 0 hr 9 min 48 sec) 
Heartbeat CPU 0 instructions: 120000003 cycles: 30000822 heartbeat IPC: 3.99947 cumulative IPC: 3.99989 (Simulation time: 0 hr 10 min 38 sec) 
Heartbeat CPU 0 instructions: 130000003 cycles: 32500822 heartbeat IPC: 4 cumulative IPC: 3.9999 (Simulation time: 0 hr 11 min 31 sec) 
Heartbeat CPU 0 instructions: 140000003 cycles: 35000822 heartbeat IPC: 4 cumulative IPC: 3.99991 (Simulation time: 0 hr 12 min 24 sec) 
Heartbeat CPU 0 instructions: 150000003 cycles: 37500822 heartbeat IPC: 4 cumulative IPC: 3.99991 (Simulation time: 0 hr 13 min 16 sec) 
Heartbeat CPU 0 instructions: 160000003 cycles: 40000822 heartbeat IPC: 4 cumulative IPC: 3.99992 (Simulation time: 0 hr 14 min 10 sec) 
Heartbeat CPU 0 instructions: 170000003 cycles: 42500822 heartbeat IPC: 4 cumulative IPC: 3.99992 (Simulation time: 0 hr 15 min 6 sec) 
Heartbeat CPU 0 instructions: 180000003 cycles: 45000822 heartbeat IPC: 4 cumulative IPC: 3.99993 (Simulation time: 0 hr 15 min 59 sec) 
Heartbeat CPU 0 instructions: 190000003 cycles: 47500822 heartbeat IPC: 4 cumulative IPC: 3.99993 (Simulation time: 0 hr 16 min 51 sec) 
Heartbeat CPU 0 instructions: 200000003 cycles: 50000822 heartbeat IPC: 4 cumulative IPC: 3.99993 (Simulation time: 0 hr 17 min 41 sec) 
Heartbeat CPU 0 instructions: 210000003 cycles: 52500822 heartbeat IPC: 4 cumulative IPC: 3.99994 (Simulation time: 0 hr 18 min 32 sec) 
Heartbeat CPU 0 instructions: 220000003 cycles: 55000822 heartbeat IPC: 4 cumulative IPC: 3.99994 (Simulation time: 0 hr 19 min 23 sec) 
Heartbeat CPU 0 instructions: 230000003 cycles: 57500822 heartbeat IPC: 4 cumulative IPC: 3.99994 (Simulation time: 0 hr 20 min 16 sec) 
Heartbeat CPU 0 instructions: 240000003 cycles: 60000822 heartbeat IPC: 4 cumulative IPC: 3.99995 (Simulation time: 0 hr 21 min 5 sec) 
Heartbeat CPU 0 instructions: 250000003 cycles: 62500822 heartbeat IPC: 4 cumulative IPC: 3.99995 (Simulation time: 0 hr 21 min 57 sec) 
Heartbeat CPU 0 instructions: 260000003 cycles: 65000822 heartbeat IPC: 4 cumulative IPC: 3.99995 (Simulation time: 0 hr 22 min 45 sec) 
Heartbeat CPU 0 instructions: 270000003 cycles: 67500822 heartbeat IPC: 4 cumulative IPC: 3.99995 (Simulation time: 0 hr 23 min 36 sec) 
Heartbeat CPU 0 instructions: 280000003 cycles: 70000822 heartbeat IPC: 4 cumulative IPC: 3.99995 (Simulation time: 0 hr 24 min 29 sec) 
Heartbeat CPU 0 instructions: 290000003 cycles: 72500822 heartbeat IPC: 4 cumulative IPC: 3.99995 (Simulation time: 0 hr 25 min 19 sec) 
Heartbeat CPU 0 instructions: 300000003 cycles: 75000822 heartbeat IPC: 4 cumulative IPC: 3.99996 (Simulation time: 0 hr 26 min 4 sec) 
Heartbeat CPU 0 instructions: 310000003 cycles: 77500822 heartbeat IPC: 4 cumulative IPC: 3.99996 (Simulation time: 0 hr 26 min 51 sec) 
Heartbeat CPU 0 instructions: 320000003 cycles: 80000822 heartbeat IPC: 4 cumulative IPC: 3.99996 (Simulation time: 0 hr 27 min 44 sec) 
Heartbeat CPU 0 instructions: 330000003 cycles: 82500822 heartbeat IPC: 4 cumulative IPC: 3.99996 (Simulation time: 0 hr 28 min 39 sec) 
Heartbeat CPU 0 instructions: 340000003 cycles: 85000822 heartbeat IPC: 4 cumulative IPC: 3.99996 (Simulation time: 0 hr 29 min 29 sec) 
Heartbeat CPU 0 instructions: 350000002 cycles: 87501302 heartbeat IPC: 3.99923 cumulative IPC: 3.99994 (Simulation time: 0 hr 30 min 18 sec) 
Heartbeat CPU 0 instructions: 360000001 cycles: 90001487 heartbeat IPC: 3.9997 cumulative IPC: 3.99993 (Simulation time: 0 hr 31 min 11 sec) 
Heartbeat CPU 0 instructions: 370000001 cycles: 92501487 heartbeat IPC: 4 cumulative IPC: 3.99994 (Simulation time: 0 hr 31 min 59 sec) 
Heartbeat CPU 0 instructions: 380000001 cycles: 95001487 heartbeat IPC: 4 cumulative IPC: 3.99994 (Simulation time: 0 hr 32 min 51 sec) 
Heartbeat CPU 0 instructions: 390000001 cycles: 97501487 heartbeat IPC: 4 cumulative IPC: 3.99994 (Simulation time: 0 hr 33 min 45 sec) 
Heartbeat CPU 0 instructions: 400000001 cycles: 100001487 heartbeat IPC: 4 cumulative IPC: 3.99994 (Simulation time: 0 hr 34 min 38 sec) 
Heartbeat CPU 0 instructions: 410000002 cycles: 102505949 heartbeat IPC: 3.99287 cumulative IPC: 3.99977 (Simulation time: 0 hr 35 min 29 sec) 
Heartbeat CPU 0 instructions: 420000002 cycles: 105006134 heartbeat IPC: 3.9997 cumulative IPC: 3.99977 (Simulation time: 0 hr 36 min 23 sec) 
Heartbeat CPU 0 instructions: 430000002 cycles: 107506134 heartbeat IPC: 4 cumulative IPC: 3.99977 (Simulation time: 0 hr 37 min 9 sec) 
Heartbeat CPU 0 instructions: 440000002 cycles: 110006134 heartbeat IPC: 4 cumulative IPC: 3.99978 (Simulation time: 0 hr 37 min 52 sec) 
Heartbeat CPU 0 instructions: 450000002 cycles: 112506134 heartbeat IPC: 4 cumulative IPC: 3.99978 (Simulation time: 0 hr 38 min 46 sec) 
Heartbeat CPU 0 instructions: 460000003 cycles: 115009161 heartbeat IPC: 3.99516 cumulative IPC: 3.99968 (Simulation time: 0 hr 39 min 40 sec) 
Heartbeat CPU 0 instructions: 470000003 cycles: 117509161 heartbeat IPC: 4 cumulative IPC: 3.99969 (Simulation time: 0 hr 40 min 35 sec) 
Heartbeat CPU 0 instructions: 480000003 cycles: 120009161 heartbeat IPC: 4 cumulative IPC: 3.99969 (Simulation time: 0 hr 41 min 30 sec) 
Heartbeat CPU 0 instructions: 490000003 cycles: 122512500 heartbeat IPC: 3.99466 cumulative IPC: 3.99959 (Simulation time: 0 hr 42 min 24 sec) 
Heartbeat CPU 0 instructions: 500000000 cycles: 125012832 heartbeat IPC: 3.99947 cumulative IPC: 3.99959 (Simulation time: 0 hr 43 min 13 sec) 

Warmup complete CPU 0 instructions: 500000004 cycles: 125012833 (Simulation time: 0 hr 43 min 13 sec) 

Heartbeat CPU 0 instructions: 510000000 cycles: 133066996 heartbeat IPC: 1.24159 cumulative IPC: 1.24159 (Simulation time: 0 hr 43 min 56 sec) 
Heartbeat CPU 0 instructions: 520000003 cycles: 141184384 heartbeat IPC: 1.23192 cumulative IPC: 1.23674 (Simulation time: 0 hr 44 min 43 sec) 
Heartbeat CPU 0 instructions: 530000004 cycles: 149145251 heartbeat IPC: 1.25614 cumulative IPC: 1.24314 (Simulation time: 0 hr 45 min 27 sec) 
Heartbeat CPU 0 instructions: 540000001 cycles: 157239351 heartbeat IPC: 1.23547 cumulative IPC: 1.24121 (Simulation time: 0 hr 46 min 11 sec) 
Heartbeat CPU 0 instructions: 550000003 cycles: 165211828 heartbeat IPC: 1.25432 cumulative IPC: 1.24381 (Simulation time: 0 hr 46 min 58 sec) 
Heartbeat CPU 0 instructions: 560000002 cycles: 173146102 heartbeat IPC: 1.26035 cumulative IPC: 1.24654 (Simulation time: 0 hr 47 min 44 sec) 
Heartbeat CPU 0 instructions: 570000003 cycles: 181147934 heartbeat IPC: 1.24971 cumulative IPC: 1.24699 (Simulation time: 0 hr 48 min 23 sec) 
Heartbeat CPU 0 instructions: 580000000 cycles: 189166268 heartbeat IPC: 1.24714 cumulative IPC: 1.24701 (Simulation time: 0 hr 49 min 0 sec) 
Heartbeat CPU 0 instructions: 590000002 cycles: 197152364 heartbeat IPC: 1.25218 cumulative IPC: 1.24758 (Simulation time: 0 hr 49 min 41 sec) 
Heartbeat CPU 0 instructions: 600000001 cycles: 205148070 heartbeat IPC: 1.25067 cumulative IPC: 1.24789 (Simulation time: 0 hr 50 min 24 sec) 
Heartbeat CPU 0 instructions: 610000003 cycles: 213092770 heartbeat IPC: 1.2587 cumulative IPC: 1.24887 (Simulation time: 0 hr 51 min 5 sec) 
Heartbeat CPU 0 instructions: 620000000 cycles: 221073788 heartbeat IPC: 1.25297 cumulative IPC: 1.24921 (Simulation time: 0 hr 51 min 51 sec) 
Heartbeat CPU 0 instructions: 630000001 cycles: 229142182 heartbeat IPC: 1.2394 cumulative IPC: 1.24845 (Simulation time: 0 hr 52 min 32 sec) 
Heartbeat CPU 0 instructions: 640000002 cycles: 237139128 heartbeat IPC: 1.25048 cumulative IPC: 1.24859 (Simulation time: 0 hr 53 min 15 sec) 
Heartbeat CPU 0 instructions: 650000002 cycles: 245116277 heartbeat IPC: 1.25358 cumulative IPC: 1.24892 (Simulation time: 0 hr 54 min 0 sec) 
Heartbeat CPU 0 instructions: 660000003 cycles: 253179530 heartbeat IPC: 1.24019 cumulative IPC: 1.24837 (Simulation time: 0 hr 54 min 39 sec) 
Heartbeat CPU 0 instructions: 670000000 cycles: 261150402 heartbeat IPC: 1.25457 cumulative IPC: 1.24874 (Simulation time: 0 hr 55 min 19 sec) 
Heartbeat CPU 0 instructions: 680000000 cycles: 269174865 heartbeat IPC: 1.24619 cumulative IPC: 1.24859 (Simulation time: 0 hr 56 min 0 sec) 
Heartbeat CPU 0 instructions: 690000000 cycles: 277165801 heartbeat IPC: 1.25142 cumulative IPC: 1.24874 (Simulation time: 0 hr 56 min 40 sec) 
Heartbeat CPU 0 instructions: 700000000 cycles: 285174855 heartbeat IPC: 1.24859 cumulative IPC: 1.24874 (Simulation time: 0 hr 57 min 23 sec) 
Heartbeat CPU 0 instructions: 710000000 cycles: 293209410 heartbeat IPC: 1.24462 cumulative IPC: 1.24854 (Simulation time: 0 hr 58 min 9 sec) 
Heartbeat CPU 0 instructions: 720000000 cycles: 301210246 heartbeat IPC: 1.24987 cumulative IPC: 1.2486 (Simulation time: 0 hr 58 min 55 sec) 
Heartbeat CPU 0 instructions: 730000001 cycles: 309238840 heartbeat IPC: 1.24555 cumulative IPC: 1.24847 (Simulation time: 0 hr 59 min 37 sec) 
Heartbeat CPU 0 instructions: 740000003 cycles: 317174043 heartbeat IPC: 1.26021 cumulative IPC: 1.24895 (Simulation time: 1 hr 0 min 21 sec) 
Heartbeat CPU 0 instructions: 750000001 cycles: 325241062 heartbeat IPC: 1.23962 cumulative IPC: 1.24858 (Simulation time: 1 hr 1 min 4 sec) 
Heartbeat CPU 0 instructions: 760000001 cycles: 333241095 heartbeat IPC: 1.24999 cumulative IPC: 1.24863 (Simulation time: 1 hr 1 min 46 sec) 
Heartbeat CPU 0 instructions: 770000001 cycles: 341365097 heartbeat IPC: 1.23092 cumulative IPC: 1.24796 (Simulation time: 1 hr 2 min 29 sec) 
Heartbeat CPU 0 instructions: 780000001 cycles: 349351964 heartbeat IPC: 1.25206 cumulative IPC: 1.24811 (Simulation time: 1 hr 3 min 12 sec) 
Heartbeat CPU 0 instructions: 790000004 cycles: 357331560 heartbeat IPC: 1.2532 cumulative IPC: 1.24829 (Simulation time: 1 hr 3 min 46 sec) 
Heartbeat CPU 0 instructions: 800000000 cycles: 365298052 heartbeat IPC: 1.25526 cumulative IPC: 1.24852 (Simulation time: 1 hr 4 min 29 sec) 
Heartbeat CPU 0 instructions: 810000003 cycles: 373269779 heartbeat IPC: 1.25443 cumulative IPC: 1.24871 (Simulation time: 1 hr 5 min 13 sec) 
Heartbeat CPU 0 instructions: 820000000 cycles: 381229820 heartbeat IPC: 1.25627 cumulative IPC: 1.24894 (Simulation time: 1 hr 5 min 54 sec) 
Heartbeat CPU 0 instructions: 830000001 cycles: 389250425 heartbeat IPC: 1.24679 cumulative IPC: 1.24888 (Simulation time: 1 hr 6 min 38 sec) 
Heartbeat CPU 0 instructions: 840000004 cycles: 397202537 heartbeat IPC: 1.25753 cumulative IPC: 1.24913 (Simulation time: 1 hr 7 min 22 sec) 
Heartbeat CPU 0 instructions: 850000003 cycles: 405236378 heartbeat IPC: 1.24473 cumulative IPC: 1.249 (Simulation time: 1 hr 8 min 7 sec) 
Heartbeat CPU 0 instructions: 860000001 cycles: 413207096 heartbeat IPC: 1.25459 cumulative IPC: 1.24916 (Simulation time: 1 hr 8 min 50 sec) 
Heartbeat CPU 0 instructions: 870000001 cycles: 421284020 heartbeat IPC: 1.2381 cumulative IPC: 1.24886 (Simulation time: 1 hr 9 min 24 sec) 
Heartbeat CPU 0 instructions: 880000000 cycles: 429309297 heartbeat IPC: 1.24606 cumulative IPC: 1.24878 (Simulation time: 1 hr 10 min 5 sec) 
Heartbeat CPU 0 instructions: 890000002 cycles: 437313614 heartbeat IPC: 1.24933 cumulative IPC: 1.2488 (Simulation time: 1 hr 10 min 51 sec) 
Heartbeat CPU 0 instructions: 900000004 cycles: 445257072 heartbeat IPC: 1.2589 cumulative IPC: 1.24905 (Simulation time: 1 hr 11 min 37 sec) 
Heartbeat CPU 0 instructions: 910000002 cycles: 453217153 heartbeat IPC: 1.25627 cumulative IPC: 1.24922 (Simulation time: 1 hr 12 min 18 sec) 
Heartbeat CPU 0 instructions: 920000003 cycles: 461206736 heartbeat IPC: 1.25163 cumulative IPC: 1.24928 (Simulation time: 1 hr 12 min 47 sec) 
Heartbeat CPU 0 instructions: 930000002 cycles: 469224022 heartbeat IPC: 1.2473 cumulative IPC: 1.24923 (Simulation time: 1 hr 13 min 31 sec) 
Heartbeat CPU 0 instructions: 940000001 cycles: 477129615 heartbeat IPC: 1.26493 cumulative IPC: 1.24959 (Simulation time: 1 hr 14 min 14 sec) 
Heartbeat CPU 0 instructions: 950000004 cycles: 485138385 heartbeat IPC: 1.24863 cumulative IPC: 1.24956 (Simulation time: 1 hr 14 min 54 sec) 
Heartbeat CPU 0 instructions: 960000002 cycles: 493218219 heartbeat IPC: 1.23765 cumulative IPC: 1.2493 (Simulation time: 1 hr 15 min 39 sec) 
Heartbeat CPU 0 instructions: 970000001 cycles: 501262692 heartbeat IPC: 1.24309 cumulative IPC: 1.24917 (Simulation time: 1 hr 16 min 24 sec) 
Heartbeat CPU 0 instructions: 980000003 cycles: 509214833 heartbeat IPC: 1.25752 cumulative IPC: 1.24934 (Simulation time: 1 hr 17 min 9 sec) 
Heartbeat CPU 0 instructions: 990000003 cycles: 517162464 heartbeat IPC: 1.25824 cumulative IPC: 1.24952 (Simulation time: 1 hr 17 min 53 sec) 
Heartbeat CPU 0 instructions: 1000000000 cycles: 525096488 heartbeat IPC: 1.26039 cumulative IPC: 1.24974 (Simulation time: 1 hr 18 min 35 sec) 
Heartbeat CPU 0 instructions: 1010000002 cycles: 533017346 heartbeat IPC: 1.26249 cumulative IPC: 1.24999 (Simulation time: 1 hr 19 min 20 sec) 
Heartbeat CPU 0 instructions: 1020000003 cycles: 540942733 heartbeat IPC: 1.26177 cumulative IPC: 1.25021 (Simulation time: 1 hr 20 min 6 sec) 
Heartbeat CPU 0 instructions: 1030000002 cycles: 549017743 heartbeat IPC: 1.23839 cumulative IPC: 1.24999 (Simulation time: 1 hr 20 min 52 sec) 
Heartbeat CPU 0 instructions: 1040000002 cycles: 557195243 heartbeat IPC: 1.22287 cumulative IPC: 1.24947 (Simulation time: 1 hr 21 min 37 sec) 
Heartbeat CPU 0 instructions: 1050000001 cycles: 565397784 heartbeat IPC: 1.21913 cumulative IPC: 1.24891 (Simulation time: 1 hr 22 min 8 sec) 
Heartbeat CPU 0 instructions: 1060000001 cycles: 573617143 heartbeat IPC: 1.21664 cumulative IPC: 1.24832 (Simulation time: 1 hr 22 min 50 sec) 
Heartbeat CPU 0 instructions: 1070000002 cycles: 581798295 heartbeat IPC: 1.22232 cumulative IPC: 1.24785 (Simulation time: 1 hr 23 min 35 sec) 
Heartbeat CPU 0 instructions: 1080000001 cycles: 590009546 heartbeat IPC: 1.21784 cumulative IPC: 1.24732 (Simulation time: 1 hr 24 min 19 sec) 
Heartbeat CPU 0 instructions: 1090000003 cycles: 598167100 heartbeat IPC: 1.22586 cumulative IPC: 1.24695 (Simulation time: 1 hr 25 min 5 sec) 
Heartbeat CPU 0 instructions: 1100000000 cycles: 606337586 heartbeat IPC: 1.22392 cumulative IPC: 1.24656 (Simulation time: 1 hr 25 min 54 sec) 
Heartbeat CPU 0 instructions: 1110000001 cycles: 614528406 heartbeat IPC: 1.22088 cumulative IPC: 1.24613 (Simulation time: 1 hr 26 min 42 sec) 
Heartbeat CPU 0 instructions: 1120000001 cycles: 622512844 heartbeat IPC: 1.25244 cumulative IPC: 1.24623 (Simulation time: 1 hr 27 min 29 sec) 
Heartbeat CPU 0 instructions: 1130000004 cycles: 630488394 heartbeat IPC: 1.25383 cumulative IPC: 1.24635 (Simulation time: 1 hr 28 min 12 sec) 
Heartbeat CPU 0 instructions: 1140000003 cycles: 638491953 heartbeat IPC: 1.24944 cumulative IPC: 1.2464 (Simulation time: 1 hr 28 min 54 sec) 
Heartbeat CPU 0 instructions: 1150000000 cycles: 646455847 heartbeat IPC: 1.25567 cumulative IPC: 1.24654 (Simulation time: 1 hr 29 min 37 sec) 
Heartbeat CPU 0 instructions: 1160000000 cycles: 654554349 heartbeat IPC: 1.2348 cumulative IPC: 1.24636 (Simulation time: 1 hr 30 min 23 sec) 
Heartbeat CPU 0 instructions: 1170000001 cycles: 662880207 heartbeat IPC: 1.20108 cumulative IPC: 1.24566 (Simulation time: 1 hr 31 min 9 sec) 
Heartbeat CPU 0 instructions: 1180000004 cycles: 671190037 heartbeat IPC: 1.20339 cumulative IPC: 1.24502 (Simulation time: 1 hr 31 min 56 sec) 
Heartbeat CPU 0 instructions: 1190000003 cycles: 679448164 heartbeat IPC: 1.21093 cumulative IPC: 1.24451 (Simulation time: 1 hr 32 min 42 sec) 
Heartbeat CPU 0 instructions: 1200000002 cycles: 687715483 heartbeat IPC: 1.20958 cumulative IPC: 1.244 (Simulation time: 1 hr 33 min 20 sec) 
Heartbeat CPU 0 instructions: 1210000000 cycles: 696029774 heartbeat IPC: 1.20275 cumulative IPC: 1.2434 (Simulation time: 1 hr 34 min 0 sec) 
Heartbeat CPU 0 instructions: 1220000004 cycles: 704307893 heartbeat IPC: 1.208 cumulative IPC: 1.24289 (Simulation time: 1 hr 34 min 45 sec) 
Heartbeat CPU 0 instructions: 1230000000 cycles: 712554111 heartbeat IPC: 1.21268 cumulative IPC: 1.24247 (Simulation time: 1 hr 35 min 27 sec) 
Heartbeat CPU 0 instructions: 1240000003 cycles: 720868561 heartbeat IPC: 1.20273 cumulative IPC: 1.24191 (Simulation time: 1 hr 36 min 11 sec) 
Heartbeat CPU 0 instructions: 1250000000 cycles: 729171042 heartbeat IPC: 1.20446 cumulative IPC: 1.2414 (Simulation time: 1 hr 36 min 56 sec) 
Heartbeat CPU 0 instructions: 1260000004 cycles: 737507991 heartbeat IPC: 1.19948 cumulative IPC: 1.24083 (Simulation time: 1 hr 37 min 40 sec) 
Heartbeat CPU 0 instructions: 1270000002 cycles: 745762345 heartbeat IPC: 1.21148 cumulative IPC: 1.24044 (Simulation time: 1 hr 38 min 26 sec) 
Heartbeat CPU 0 instructions: 1280000000 cycles: 754118491 heartbeat IPC: 1.19672 cumulative IPC: 1.23986 (Simulation time: 1 hr 39 min 11 sec) 
Heartbeat CPU 0 instructions: 1290000000 cycles: 762421560 heartbeat IPC: 1.20437 cumulative IPC: 1.23939 (Simulation time: 1 hr 39 min 54 sec) 
Heartbeat CPU 0 instructions: 1300000000 cycles: 770738317 heartbeat IPC: 1.20239 cumulative IPC: 1.23892 (Simulation time: 1 hr 40 min 39 sec) 
Heartbeat CPU 0 instructions: 1310000003 cycles: 779032082 heartbeat IPC: 1.20573 cumulative IPC: 1.2385 (Simulation time: 1 hr 41 min 24 sec) 
Heartbeat CPU 0 instructions: 1320000000 cycles: 787307356 heartbeat IPC: 1.20842 cumulative IPC: 1.23812 (Simulation time: 1 hr 42 min 11 sec) 
Heartbeat CPU 0 instructions: 1330000000 cycles: 795577248 heartbeat IPC: 1.20921 cumulative IPC: 1.23776 (Simulation time: 1 hr 42 min 59 sec) 
Heartbeat CPU 0 instructions: 1340000000 cycles: 803836177 heartbeat IPC: 1.21081 cumulative IPC: 1.23744 (Simulation time: 1 hr 43 min 42 sec) 
Heartbeat CPU 0 instructions: 1350000003 cycles: 812070232 heartbeat IPC: 1.21447 cumulative IPC: 1.23716 (Simulation time: 1 hr 44 min 23 sec) 
Heartbeat CPU 0 instructions: 1360000000 cycles: 820300574 heartbeat IPC: 1.21502 cumulative IPC: 1.2369 (Simulation time: 1 hr 45 min 6 sec) 
Heartbeat CPU 0 instructions: 1370000002 cycles: 828532241 heartbeat IPC: 1.21482 cumulative IPC: 1.23664 (Simulation time: 1 hr 45 min 47 sec) 
Heartbeat CPU 0 instructions: 1380000003 cycles: 836835765 heartbeat IPC: 1.20431 cumulative IPC: 1.23626 (Simulation time: 1 hr 46 min 32 sec) 
Heartbeat CPU 0 instructions: 1390000004 cycles: 845117119 heartbeat IPC: 1.20753 cumulative IPC: 1.23593 (Simulation time: 1 hr 47 min 18 sec) 
Heartbeat CPU 0 instructions: 1400000003 cycles: 853438549 heartbeat IPC: 1.20172 cumulative IPC: 1.23554 (Simulation time: 1 hr 48 min 5 sec) 
Heartbeat CPU 0 instructions: 1410000000 cycles: 861745334 heartbeat IPC: 1.20383 cumulative IPC: 1.23518 (Simulation time: 1 hr 48 min 51 sec) 
Heartbeat CPU 0 instructions: 1420000001 cycles: 869984630 heartbeat IPC: 1.2137 cumulative IPC: 1.23495 (Simulation time: 1 hr 49 min 37 sec) 
Heartbeat CPU 0 instructions: 1430000001 cycles: 878244896 heartbeat IPC: 1.21061 cumulative IPC: 1.23468 (Simulation time: 1 hr 50 min 22 sec) 
Heartbeat CPU 0 instructions: 1440000000 cycles: 886498324 heartbeat IPC: 1.21162 cumulative IPC: 1.23443 (Simulation time: 1 hr 51 min 7 sec) 
Heartbeat CPU 0 instructions: 1450000002 cycles: 894868518 heartbeat IPC: 1.19472 cumulative IPC: 1.234 (Simulation time: 1 hr 51 min 53 sec) 
Heartbeat CPU 0 instructions: 1460000000 cycles: 903145102 heartbeat IPC: 1.20823 cumulative IPC: 1.23372 (Simulation time: 1 hr 52 min 38 sec) 
Heartbeat CPU 0 instructions: 1470000004 cycles: 911425524 heartbeat IPC: 1.20767 cumulative IPC: 1.23345 (Simulation time: 1 hr 53 min 20 sec) 
Heartbeat CPU 0 instructions: 1480000000 cycles: 919680504 heartbeat IPC: 1.21139 cumulative IPC: 1.23322 (Simulation time: 1 hr 54 min 7 sec) 
Heartbeat CPU 0 instructions: 1490000002 cycles: 927961666 heartbeat IPC: 1.20756 cumulative IPC: 1.23296 (Simulation time: 1 hr 54 min 54 sec) 
Heartbeat CPU 0 instructions: 1500000000 cycles: 936230465 heartbeat IPC: 1.20937 cumulative IPC: 1.23271 (Simulation time: 1 hr 55 min 29 sec) 
Heartbeat CPU 0 instructions: 1510000004 cycles: 944447711 heartbeat IPC: 1.21695 cumulative IPC: 1.23256 (Simulation time: 1 hr 56 min 11 sec) 
Heartbeat CPU 0 instructions: 1520000002 cycles: 952740687 heartbeat IPC: 1.20584 cumulative IPC: 1.23229 (Simulation time: 1 hr 56 min 56 sec) 
Heartbeat CPU 0 instructions: 1530000002 cycles: 961001718 heartbeat IPC: 1.2105 cumulative IPC: 1.23207 (Simulation time: 1 hr 57 min 43 sec) 
Heartbeat CPU 0 instructions: 1540000002 cycles: 969344602 heartbeat IPC: 1.19863 cumulative IPC: 1.23174 (Simulation time: 1 hr 58 min 24 sec) 
Heartbeat CPU 0 instructions: 1550000002 cycles: 977663220 heartbeat IPC: 1.20212 cumulative IPC: 1.23145 (Simulation time: 1 hr 59 min 10 sec) 
Heartbeat CPU 0 instructions: 1560000000 cycles: 985969555 heartbeat IPC: 1.2039 cumulative IPC: 1.23119 (Simulation time: 1 hr 59 min 58 sec) 
Heartbeat CPU 0 instructions: 1570000002 cycles: 994238500 heartbeat IPC: 1.20934 cumulative IPC: 1.23098 (Simulation time: 2 hr 0 min 34 sec) 
Heartbeat CPU 0 instructions: 1580000000 cycles: 1002391653 heartbeat IPC: 1.22652 cumulative IPC: 1.23094 (Simulation time: 2 hr 1 min 21 sec) 
Heartbeat CPU 0 instructions: 1590000002 cycles: 1010535003 heartbeat IPC: 1.228 cumulative IPC: 1.23091 (Simulation time: 2 hr 2 min 6 sec) 
Heartbeat CPU 0 instructions: 1600000001 cycles: 1018861720 heartbeat IPC: 1.20095 cumulative IPC: 1.23063 (Simulation time: 2 hr 2 min 50 sec) 
Heartbeat CPU 0 instructions: 1610000003 cycles: 1027123279 heartbeat IPC: 1.21043 cumulative IPC: 1.23045 (Simulation time: 2 hr 3 min 32 sec) 
Heartbeat CPU 0 instructions: 1620000002 cycles: 1035451349 heartbeat IPC: 1.20076 cumulative IPC: 1.23018 (Simulation time: 2 hr 4 min 16 sec) 
Heartbeat CPU 0 instructions: 1630000001 cycles: 1043753195 heartbeat IPC: 1.20455 cumulative IPC: 1.22994 (Simulation time: 2 hr 4 min 55 sec) 
Heartbeat CPU 0 instructions: 1640000004 cycles: 1052040638 heartbeat IPC: 1.20665 cumulative IPC: 1.22974 (Simulation time: 2 hr 5 min 42 sec) 
Heartbeat CPU 0 instructions: 1650000001 cycles: 1060307502 heartbeat IPC: 1.20965 cumulative IPC: 1.22956 (Simulation time: 2 hr 6 min 28 sec) 
Heartbeat CPU 0 instructions: 1660000004 cycles: 1068541239 heartbeat IPC: 1.21452 cumulative IPC: 1.22943 (Simulation time: 2 hr 7 min 15 sec) 
Heartbeat CPU 0 instructions: 1670000003 cycles: 1076632529 heartbeat IPC: 1.2359 cumulative IPC: 1.22948 (Simulation time: 2 hr 8 min 2 sec) 
Heartbeat CPU 0 instructions: 1680000004 cycles: 1084572454 heartbeat IPC: 1.25946 cumulative IPC: 1.22973 (Simulation time: 2 hr 8 min 44 sec) 
Heartbeat CPU 0 instructions: 1690000001 cycles: 1092457990 heartbeat IPC: 1.26814 cumulative IPC: 1.23004 (Simulation time: 2 hr 9 min 27 sec) 
Heartbeat CPU 0 instructions: 1700000000 cycles: 1100422723 heartbeat IPC: 1.25553 cumulative IPC: 1.23025 (Simulation time: 2 hr 10 min 9 sec) 
Heartbeat CPU 0 instructions: 1710000003 cycles: 1108428566 heartbeat IPC: 1.24909 cumulative IPC: 1.23041 (Simulation time: 2 hr 10 min 55 sec) 
Heartbeat CPU 0 instructions: 1720000002 cycles: 1116378621 heartbeat IPC: 1.25785 cumulative IPC: 1.23063 (Simulation time: 2 hr 11 min 37 sec) 
Heartbeat CPU 0 instructions: 1730000002 cycles: 1124325841 heartbeat IPC: 1.2583 cumulative IPC: 1.23085 (Simulation time: 2 hr 12 min 18 sec) 
Heartbeat CPU 0 instructions: 1740000004 cycles: 1132317608 heartbeat IPC: 1.25129 cumulative IPC: 1.23101 (Simulation time: 2 hr 13 min 1 sec) 
Heartbeat CPU 0 instructions: 1750000001 cycles: 1140342064 heartbeat IPC: 1.24619 cumulative IPC: 1.23113 (Simulation time: 2 hr 13 min 48 sec) 
Heartbeat CPU 0 instructions: 1760000001 cycles: 1148215175 heartbeat IPC: 1.27015 cumulative IPC: 1.23143 (Simulation time: 2 hr 14 min 34 sec) 
Heartbeat CPU 0 instructions: 1770000000 cycles: 1156144666 heartbeat IPC: 1.26111 cumulative IPC: 1.23166 (Simulation time: 2 hr 15 min 20 sec) 
Heartbeat CPU 0 instructions: 1780000000 cycles: 1164198884 heartbeat IPC: 1.24159 cumulative IPC: 1.23173 (Simulation time: 2 hr 16 min 4 sec) 
Heartbeat CPU 0 instructions: 1790000000 cycles: 1172059507 heartbeat IPC: 1.27216 cumulative IPC: 1.23204 (Simulation time: 2 hr 16 min 43 sec) 
Heartbeat CPU 0 instructions: 1800000003 cycles: 1179982891 heartbeat IPC: 1.26209 cumulative IPC: 1.23226 (Simulation time: 2 hr 17 min 25 sec) 
Heartbeat CPU 0 instructions: 1810000003 cycles: 1188033900 heartbeat IPC: 1.24208 cumulative IPC: 1.23234 (Simulation time: 2 hr 18 min 8 sec) 
Heartbeat CPU 0 instructions: 1820000000 cycles: 1195963350 heartbeat IPC: 1.26112 cumulative IPC: 1.23255 (Simulation time: 2 hr 18 min 54 sec) 
Heartbeat CPU 0 instructions: 1830000000 cycles: 1203919447 heartbeat IPC: 1.2569 cumulative IPC: 1.23273 (Simulation time: 2 hr 19 min 40 sec) 
Heartbeat CPU 0 instructions: 1840000004 cycles: 1211872673 heartbeat IPC: 1.25735 cumulative IPC: 1.23291 (Simulation time: 2 hr 20 min 15 sec) 
Heartbeat CPU 0 instructions: 1850000003 cycles: 1219742731 heartbeat IPC: 1.27064 cumulative IPC: 1.23318 (Simulation time: 2 hr 21 min 2 sec) 
Heartbeat CPU 0 instructions: 1860000000 cycles: 1227697775 heartbeat IPC: 1.25706 cumulative IPC: 1.23335 (Simulation time: 2 hr 21 min 45 sec) 
Heartbeat CPU 0 instructions: 1870000002 cycles: 1235565150 heartbeat IPC: 1.27107 cumulative IPC: 1.23362 (Simulation time: 2 hr 22 min 30 sec) 
Heartbeat CPU 0 instructions: 1880000000 cycles: 1243597049 heartbeat IPC: 1.24504 cumulative IPC: 1.2337 (Simulation time: 2 hr 23 min 13 sec) 
Heartbeat CPU 0 instructions: 1890000001 cycles: 1251601046 heartbeat IPC: 1.24938 cumulative IPC: 1.23381 (Simulation time: 2 hr 23 min 59 sec) 
Heartbeat CPU 0 instructions: 1900000001 cycles: 1259618544 heartbeat IPC: 1.24727 cumulative IPC: 1.23391 (Simulation time: 2 hr 24 min 41 sec) 
Heartbeat CPU 0 instructions: 1910000001 cycles: 1267617638 heartbeat IPC: 1.25014 cumulative IPC: 1.23402 (Simulation time: 2 hr 25 min 28 sec) 
Heartbeat CPU 0 instructions: 1920000003 cycles: 1275660823 heartbeat IPC: 1.24329 cumulative IPC: 1.23409 (Simulation time: 2 hr 26 min 7 sec) 
Heartbeat CPU 0 instructions: 1930000001 cycles: 1283525048 heartbeat IPC: 1.27158 cumulative IPC: 1.23434 (Simulation time: 2 hr 26 min 48 sec) 
Heartbeat CPU 0 instructions: 1940000002 cycles: 1291398173 heartbeat IPC: 1.27014 cumulative IPC: 1.23458 (Simulation time: 2 hr 27 min 28 sec) 
Heartbeat CPU 0 instructions: 1950000001 cycles: 1299364801 heartbeat IPC: 1.25524 cumulative IPC: 1.23472 (Simulation time: 2 hr 28 min 7 sec) 
Heartbeat CPU 0 instructions: 1960000000 cycles: 1307268409 heartbeat IPC: 1.26524 cumulative IPC: 1.23493 (Simulation time: 2 hr 28 min 52 sec) 
Heartbeat CPU 0 instructions: 1970000001 cycles: 1315347826 heartbeat IPC: 1.23771 cumulative IPC: 1.23495 (Simulation time: 2 hr 29 min 40 sec) 
Heartbeat CPU 0 instructions: 1980000001 cycles: 1323297531 heartbeat IPC: 1.25791 cumulative IPC: 1.2351 (Simulation time: 2 hr 30 min 28 sec) 
Heartbeat CPU 0 instructions: 1990000000 cycles: 1331245034 heartbeat IPC: 1.25826 cumulative IPC: 1.23525 (Simulation time: 2 hr 31 min 13 sec) 
*** Reached end of trace: traces/648.exchange2_s-1247B.champsimtrace.xz
Heartbeat CPU 0 instructions: 2000000002 cycles: 1339299565 heartbeat IPC: 1.24154 cumulative IPC: 1.23529 (Simulation time: 2 hr 32 min 1 sec) 
Finished CPU 0 instructions: 1500000003 cycles: 1214286733 cumulative IPC: 1.23529 (Simulation time: 2 hr 32 min 1 sec) 

ChampSim completed all CPUs

Region of Interest Statistics

CPU 0 cumulative IPC: 1.23529 instructions: 1500000003 cycles: 1214286733
cpu0_DTLB TOTAL     ACCESS:  223645508  HIT:  223645491  MISS:         17
cpu0_DTLB LOAD      ACCESS:  103893717  HIT:  103893704  MISS:         13
cpu0_DTLB RFO       ACCESS:  119751791  HIT:  119751787  MISS:          4
cpu0_DTLB PREFETCH  ACCESS:          0  HIT:          0  MISS:          0
cpu0_DTLB WRITEBACK ACCESS:          0  HIT:          0  MISS:          0
cpu0_DTLB TRANSLATION ACCESS:          0  HIT:          0  MISS:          0
cpu0_DTLB PREFETCH  REQUESTED:          0  ISSUED:          0  USEFUL:          0  USELESS:          0
cpu0_DTLB AVERAGE MISS LATENCY: 206.647 cycles
cpu0_ITLB TOTAL     ACCESS:  154839275  HIT:  154839255  MISS:         20
cpu0_ITLB LOAD      ACCESS:  154839275  HIT:  154839255  MISS:         20
cpu0_ITLB RFO       ACCESS:          0  HIT:          0  MISS:          0
cpu0_ITLB PREFETCH  ACCESS:          0  HIT:          0  MISS:          0
cpu0_ITLB WRITEBACK ACCESS:          0  HIT:          0  MISS:          0
cpu0_ITLB TRANSLATION ACCESS:          0  HIT:          0  MISS:          0
cpu0_ITLB PREFETCH  REQUESTED:          0  ISSUED:          0  USEFUL:          0  USELESS:          0
cpu0_ITLB AVERAGE MISS LATENCY: 206.6 cycles
cpu0_L1I TOTAL     ACCESS:   66644180  HIT:   66588738  MISS:      55442
cpu0_L1I LOAD      ACCESS:   66644180  HIT:   66588738  MISS:      55442
cpu0_L1I RFO       ACCESS:          0  HIT:          0  MISS:          0
cpu0_L1I PREFETCH  ACCESS:          0  HIT:          0  MISS:          0
cpu0_L1I WRITEBACK ACCESS:          0  HIT:          0  MISS:          0
cpu0_L1I TRANSLATION ACCESS:          0  HIT:          0  MISS:          0
cpu0_L1I PREFETCH  REQUESTED:          0  ISSUED:          0  USEFUL:          0  USELESS:          0
cpu0_L1I AVERAGE MISS LATENCY: 11.761 cycles
cpu0_STLB TOTAL     ACCESS:         37  HIT:          1  MISS:         36
cpu0_STLB LOAD      ACCESS:         33  HIT:          1  MISS:         32
cpu0_STLB RFO       ACCESS:          4  HIT:          0  MISS:          4
cpu0_STLB PREFETCH  ACCESS:          0  HIT:          0  MISS:          0
cpu0_STLB WRITEBACK ACCESS:          0  HIT:          0  MISS:          0
cpu0_STLB TRANSLATION ACCESS:          0  HIT:          0  MISS:          0
cpu0_STLB PREFETCH  REQUESTED:          0  ISSUED:          0  USEFUL:          0  USELESS:          0
cpu0_STLB AVERAGE MISS LATENCY: 203.111 cycles
cpu0_L1D TOTAL     ACCESS:  415892475  HIT:  415892356  MISS:        119
cpu0_L1D LOAD      ACCESS:  196329432  HIT:  196329369  MISS:         63
cpu0_L1D RFO       ACCESS:  219563007  HIT:  219562951  MISS:         56
cpu0_L1D PREFETCH  ACCESS:          0  HIT:          0  MISS:          0
cpu0_L1D WRITEBACK ACCESS:          0  HIT:          0  MISS:          0
cpu0_L1D TRANSLATION ACCESS:         36  HIT:         36  MISS:          0
cpu0_L1D PREFETCH  REQUESTED:          0  ISSUED:          0  USEFUL:          0  USELESS:          0
cpu0_L1D AVERAGE MISS LATENCY: 204.933 cycles
cpu0_L2C TOTAL     ACCESS:      55561  HIT:      55197  MISS:        364
cpu0_L2C LOAD      ACCESS:      55505  HIT:      55197  MISS:        308
cpu0_L2C RFO       ACCESS:         56  HIT:          0  MISS:         56
cpu0_L2C PREFETCH  ACCESS:          0  HIT:          0  MISS:          0
cpu0_L2C WRITEBACK ACCESS:          0  HIT:          0  MISS:          0
cpu0_L2C TRANSLATION ACCESS:          0  HIT:          0  MISS:          0
cpu0_L2C PREFETCH  REQUESTED:          0  ISSUED:          0  USEFUL:          0  USELESS:          0
cpu0_L2C AVERAGE MISS LATENCY: 179.294 cycles
LLC TOTAL     ACCESS:        364  HIT:          0  MISS:        364
LLC LOAD      ACCESS:        308  HIT:          0  MISS:        308
LLC RFO       ACCESS:         56  HIT:          0  MISS:         56
LLC PREFETCH  ACCESS:          0  HIT:          0  MISS:          0
LLC WRITEBACK ACCESS:          0  HIT:          0  MISS:          0
LLC TRANSLATION ACCESS:          0  HIT:          0  MISS:          0
LLC PREFETCH  REQUESTED:          0  ISSUED:          0  USEFUL:          0  USELESS:          0
LLC AVERAGE MISS LATENCY: 158.294 cycles
~~~~~~~~~~Reuse Distance Profiler output~~~~~~~~~~
0	156527936	33173152
1	68891232	19901840
2	37485920	12223472
3	28346560	11191968
4	17977808	7710608
5	16160704	6561248
6	13156480	5136304
7	11776816	4810848
8	7972256	3775104
9	6741872	3835888
10	5013920	3094384
11	4973104	2979056
12	6378864	4190720
13	6596880	5025344
14	4539824	3285504
15	2961792	1900992
16	3103520	2502544
17	2572160	1855888
18	2528960	1641776
19	2488624	1939936
20	1858736	1319472
21	1776096	1314128
22	1670384	1308912
23	1490272	1190432
24	1193792	893264
25	1552512	1328640
26	1489344	1250656
27	1545488	908240
28	991568	839296
29	1271216	1142368
30	1462448	1203296
31	1139776	939584
32	1054640	922832
33	970832	786640
34	1194976	996176
35	1026800	884256
36	970832	799280
37	924288	797152
38	958896	822048
39	1015440	834208
40	954304	800320
41	994656	854352
42	1081040	878480
43	1105728	929792
44	1236176	982240
45	1089600	891680
46	1560736	1291456
47	1282016	1002592
48	1185328	946112
49	998976	786752
50	1002848	803792
51	1024976	847872
52	1236480	1031104
53	853696	644752
54	1086560	910080
55	985744	797056
56	1050208	839952
57	855520	616032
58	870848	627728
59	982976	666624
60	726896	530416
61	822944	619808
62	791216	575872
63	751168	518032
64	1390048	972208
66	1364128	930576
68	1170656	742208
70	1246816	787680
72	1180528	726416
74	1155984	680112
76	994112	503776
78	946752	509792
80	947664	592032
82	982608	601904
84	948416	573952
86	878144	486848
88	923392	443056
90	917472	530336
92	968544	585280
94	959056	589712
96	1063456	682000
98	1048368	665408
100	1107408	749072
102	927552	647728
104	842304	611520
106	864720	665776
108	734160	534064
110	848112	586160
112	683728	463952
114	760400	547296
116	677888	445424
118	580528	411200
120	549376	413216
122	540176	397232
124	482416	368016
126	423984	356080
128	874816	740592
132	790320	707072
136	896512	834960
140	775072	739008
144	779232	727888
148	800496	731712
152	844320	778048
156	835648	759632
160	879504	798016
164	835936	746992
168	696080	616000
172	764848	681568
176	727024	647472
180	752800	662400
184	781600	681856
188	874192	789280
192	813984	726944
196	763728	697376
200	807376	722544
204	707792	629504
208	706656	618288
212	722240	630720
216	662304	553776
220	719824	628032
224	624480	540608
228	569888	487296
232	628704	551168
236	559984	504880
240	555200	502368
244	562320	502848
248	586384	533376
252	578208	510736
256	1179360	1064352
264	1085504	979952
272	1098304	993136
280	1173216	1086800
288	1073328	972240
296	1046048	949136
304	985712	874608
312	974528	855600
320	927120	832688
328	892192	802464
336	772080	695120
344	683440	614816
352	656496	582544
360	710032	638112
368	685552	611456
376	664400	605440
384	682352	625408
392	636624	568240
400	629968	550416
408	631936	550688
416	578128	491216
424	573104	485584
432	545792	456464
440	531760	447024
448	531872	447856
456	483888	408528
464	499984	419424
472	483264	402544
480	470192	398224
488	456512	390640
496	432992	374704
504	414208	355216
512	767136	642448
528	836256	694880
544	731632	613536
560	648496	518720
576	645968	500224
592	584224	448880
608	544112	426656
624	567072	433952
640	549712	437888
656	417424	333376
672	437632	336560
688	442112	351344
704	361648	280720
720	407408	324496
736	353904	280096
752	297936	228256
768	318352	237664
784	304032	231328
800	308032	239456
816	334304	260048
832	306528	230304
848	275216	200576
864	256976	184736
880	255712	187184
896	239488	178464
912	232384	175312
928	239232	183616
944	230112	170912
960	218000	160080
976	209296	154960
992	191104	143264
1008	178880	138256
1024	349216	261056
1056	346144	258976
1088	331600	241776
1120	301552	217664
1152	280336	200688
1184	270240	184016
1216	258272	183152
1248	243488	174464
1280	221680	155200
1312	201184	141600
1344	203536	151104
1376	201232	143152
1408	187616	132160
1440	183536	129728
1472	177632	125440
1504	157040	108576
1536	150704	100416
1568	136960	92912
1600	132784	93888
1632	126624	89024
1664	127776	86160
1696	118208	80160
1728	117984	83792
1760	108912	78576
1792	113360	79008
1824	103264	73568
1856	97872	71696
1888	98000	68928
1920	95600	68784
1952	89472	61408
1984	88016	60464
2016	82080	59968
2048	145568	105248
2112	146256	107696
2176	132560	95088
2240	119680	86176
2304	112288	81216
2368	107072	81488
2432	94352	68624
2496	97952	72272
2560	93360	71168
2624	84704	64080
2688	84896	64176
2752	83504	64992
2816	79072	60976
2880	76320	60320
2944	70096	56144
3008	67392	55024
3072	60160	48784
3136	59856	49360
3200	57248	46352
3264	58720	48352
3328	53424	42608
3392	55776	45904
3456	52944	43744
3520	50000	41680
3584	50656	40752
3648	43680	35872
3712	41552	33408
3776	41616	33808
3840	43568	35808
3904	41120	32768
3968	42624	34560
4032	38144	29904
4096	67056	52960
4224	65536	52864
4352	63728	50960
4480	62096	50976
4608	53344	43184
4736	49280	39328
4864	46224	37264
4992	42288	33696
5120	38560	30080
5248	35856	27856
5376	33648	26912
5504	31584	25616
5632	28864	22608
5760	26512	20944
5888	24240	18480
6016	21088	15728
6144	19936	15008
6272	19536	14736
6400	17456	12688
6528	16512	11984
6656	15168	11760
6784	14368	10768
6912	14304	10928
7040	13024	9360
7168	12272	8800
7296	12128	8704
7424	12016	8416
7552	10736	7888
7680	10192	7280
7808	10224	6992
7936	9904	6640
8064	9312	6560
8192	18544	12112
8448	17184	11328
8704	16576	11056
8960	14896	9456
9216	13536	8464
9472	13152	7968
9728	11968	7056
9984	10784	6368
10240	9872	5712
10496	9712	5808
10752	9056	5088
11008	8528	5008
11264	7568	4480
11520	6944	4096
11776	6352	3536
12032	6352	3568
12288	5648	2736
12544	5760	3264
12800	5760	3216
13056	4656	2592
13312	5120	2576
13568	4880	2400
13824	4240	2288
14080	4496	2080
14336	4144	2144
14592	3840	2096
14848	3904	1808
15104	4080	1856
15360	4032	1872
15616	3504	1664
15872	3360	1776
16128	3776	1936
16384	6960	3584
16896	5984	3056
17408	6576	3200
17920	5984	2512
18432	5888	2544
18944	5280	2576
19456	5696	2752
19968	5712	3104
20480	5952	3360
20992	4944	2320
21504	3952	2160
22016	3952	1920
22528	3856	1904
23040	3936	1616
23552	3456	1456
24064	4320	1648
24576	3568	1184
25088	3760	1680
25600	3424	1088
26112	3920	1280
26624	3552	1216
27136	3536	1696
27648	3392	1328
28160	3392	1328
28672	3440	1328
29184	3456	1232
29696	3776	1504
30208	3360	1040
30720	3328	1024
31232	3280	1136
31744	3216	992
32256	3824	1312
32768	6624	2736
33792	6528	2864
34816	4944	1856
35840	5600	2400
36864	5744	2144
37888	5504	2560
38912	6848	3680
39936	5712	3376
40960	5008	2688
41984	4080	2000
43008	4208	1728
44032	3840	1808
45056	3376	1440
46080	3616	1536
47104	3168	1296
48128	3312	1648
49152	2704	1392
50176	2576	1168
51200	2192	1136
52224	2544	1216
53248	2496	1088
54272	2480	1120
55296	2544	1248
56320	2336	928
57344	2032	944
58368	2416	1008
59392	2656	1536
60416	2128	1328
61440	2240	1088
62464	1984	976
63488	2064	1152
64512	1888	784
65536	3856	1856
67584	3360	1712
69632	2800	1504
71680	3200	2000
73728	3456	1920
75776	3008	1520
77824	2368	1376
79872	2160	1184
81920	2096	1264
83968	2064	1280
86016	1760	1008
88064	2016	1344
90112	1824	1312
92160	2496	1520
94208	2016	1200
96256	2128	1248
98304	1440	848
100352	1808	912
102400	1360	912
104448	1440	1088
106496	1552	1104
108544	1536	960
110592	1296	784
112640	1504	1056
114688	1664	1056
116736	1328	992
118784	1120	752
120832	1232	832
122880	1232	864
124928	928	704
126976	992	528
129024	1552	1072
131072	1424	992
135168	1968	1344
139264	2592	1728
143360	1552	976
147456	1584	1168
151552	1600	992
155648	1312	848
159744	1536	944
163840	2000	1152
167936	1424	928
172032	1184	800
176128	1312	768
180224	1232	864
184320	1168	800
188416	1152	656
192512	816	416
196608	864	704
200704	784	512
204800	896	560
208896	976	528
212992	624	368
217088	800	480
221184	672	400
225280	560	336
229376	704	384
233472	400	240
237568	704	464
241664	592	320
245760	544	320
249856	336	208
253952	640	352
258048	400	272
262144	768	496
270336	752	480
278528	896	416
286720	752	432
294912	848	464
303104	704	448
311296	784	416
319488	864	368
327680	576	320
335872	672	192
344064	704	224
352256	1056	336
360448	656	272
368640	880	160
376832	496	176
385024	400	128
393216	368	96
401408	544	224
409600	464	192
417792	432	128
425984	304	208
434176	304	208
442368	288	128
450560	432	288
458752	256	176
466944	192	32
475136	256	144
483328	112	96
491520	208	144
499712	224	192
507904	176	160
516096	304	192
524288	272	160
540672	304	192
557056	432	224
573440	256	192
589824	288	144
606208	320	208
622592	208	112
638976	368	192
655360	208	96
671744	336	128
688128	96	48
704512	112	48
720896	176	64
737280	176	112
753664	176	112
770048	192	48
786432	160	32
802816	144	48
819200	32	32
835584	80	64
851968	96	48
868352	112	64
884736	80	64
901120	176	80
917504	64	48
933888	112	48
950272	112	48
966656	224	80
983040	128	64
999424	160	160
1015808	64	0
1032192	48	16
1048576	96	48
1081344	192	80
1114112	256	112
1146880	304	176
1179648	208	112
1212416	128	128
1245184	160	96
1277952	160	64
1310720	288	160
1343488	112	80
1376256	48	16
1409024	112	112
1441792	64	48
1474560	240	64
1507328	112	16
1540096	144	64
1572864	64	64
1605632	96	64
1638400	64	48
1671168	160	96
1703936	112	64
1736704	208	80
1769472	112	80
1802240	112	48
1835008	80	32
1867776	32	0
1900544	64	32
1933312	16	16
1966080	64	48
1998848	128	64
2031616	96	16
2064384	64	16
2097152	96	48
2162688	144	48
2228224	16	16
2293760	144	80
2359296	32	16
2424832	48	48
2490368	80	32
2555904	32	32
2621440	128	96
2686976	32	32
2752512	0	0
2818048	0	0
2883584	48	16
2949120	48	32
3014656	96	0
3080192	32	32
3145728	0	0
3211264	32	16
3276800	32	32
3342336	16	0
3407872	16	16
3473408	48	32
3538944	16	16
3604480	112	32
3670016	80	48
3735552	176	32
3801088	32	32
3866624	16	16
3932160	64	48
3997696	16	16
4063232	48	16
4128768	0	0
4194304	16	16
4325376	32	32
4456448	64	16
4587520	32	16
4718592	112	64
4849664	0	0
4980736	0	0
5111808	16	16
5242880	48	16
5373952	256	0
5505024	48	16
5636096	16	16
5767168	32	16
5898240	0	0
6029312	64	0
6160384	16	16
6291456	0	0
6422528	16	16
6553600	32	0
6684672	0	0
6815744	48	0
6946816	16	16
7077888	16	16
7208960	0	0
7340032	0	0
7471104	32	0
7602176	0	0
7733248	16	0
7864320	32	32
7995392	80	16
8126464	16	0
8257536	64	16
8388608	32	0
8650752	16	16
8912896	128	16
9175040	64	32
9437184	64	16
9699328	32	0
9961472	0	0
10223616	32	0
10485760	0	0
10747904	0	0
11010048	16	0
11272192	16	0
11534336	64	0
11796480	48	16
12058624	16	0
12320768	48	16
12582912	0	0
12845056	0	0
13107200	80	32
13369344	0	0
13631488	48	16
13893632	16	0
14155776	16	0
14417920	32	0
14680064	0	0
14942208	0	0
15204352	0	0
15466496	48	16
15728640	0	0
15990784	0	0
16252928	32	16
16515072	96	32
16777216	0	0
17301504	0	0
17825792	16	16
18350080	32	16
18874368	0	0
19398656	0	0
19922944	48	32
20447232	48	48
20971520	0	0
21495808	0	0
22020096	112	16
22544384	0	0
23068672	0	0
23592960	0	0
24117248	0	0
24641536	0	0
25165824	0	0
25690112	0	0
26214400	0	0
26738688	0	0
27262976	0	0
27787264	0	0
28311552	0	0
28835840	0	0
29360128	0	0
29884416	0	0
30408704	0	0
30932992	0	0
31457280	0	0
31981568	0	0
32505856	0	0
33030144	0	0
33554432	0	0
34603008	16	0
35651584	96	16
36700160	0	0
37748736	16	16
38797312	0	0
39845888	0	0
40894464	0	0
41943040	0	0
42991616	0	0
44040192	0	0
45088768	0	0
46137344	0	0
47185920	0	0
48234496	0	0
49283072	0	0
50331648	0	0
51380224	0	0
52428800	0	0
53477376	0	0
54525952	0	0
55574528	0	0
56623104	0	0
57671680	32	0
58720256	0	0
59768832	0	0
60817408	0	0
61865984	16	16
62914560	48	0
63963136	0	0
65011712	0	0
66060288	0	0
67108864	32	0
69206016	32	32
71303168	0	0
73400320	0	0
75497472	0	0
77594624	0	0
79691776	16	0
81788928	0	0
83886080	0	0
85983232	0	0
88080384	0	0
90177536	0	0
92274688	0	0
94371840	0	0
96468992	0	0
98566144	0	0
100663296	0	0
102760448	0	0
104857600	0	0
106954752	0	0
109051904	0	0
111149056	0	0
113246208	0	0
115343360	0	0
117440512	0	0
119537664	0	0
121634816	0	0
123731968	0	0
125829120	0	0
127926272	0	0
130023424	0	0
132120576	0	0
134217728	0	0
138412032	96	64
142606336	0	0
146800640	0	0
150994944	0	0
155189248	0	0
159383552	0	0
163577856	0	0
167772160	0	0
171966464	0	0
176160768	32	16
180355072	0	0
184549376	0	0
188743680	0	0
192937984	0	0
197132288	0	0
201326592	0	0
205520896	0	0
209715200	0	0
213909504	0	0
218103808	0	0
222298112	0	0
226492416	0	0
230686720	0	0
234881024	0	0
239075328	0	0
243269632	0	0
247463936	16	0
251658240	0	0
255852544	0	0
260046848	0	0
264241152	0	0
268435456	0	0
276824064	0	0
285212672	0	0
293601280	0	0
301989888	0	0
310378496	0	0
318767104	0	0
327155712	0	0
335544320	0	0
343932928	0	0
352321536	0	0
360710144	0	0
369098752	0	0
377487360	0	0
385875968	0	0
394264576	0	0
402653184	0	0
411041792	0	0
419430400	0	0
427819008	0	0
436207616	0	0
444596224	0	0
452984832	0	0
461373440	0	0
469762048	0	0
478150656	0	0
486539264	0	0
494927872	0	0
503316480	0	0
511705088	0	0
520093696	0	0
528482304	0	0
536870912	0	0
553648128	0	0
570425344	0	0
587202560	0	0
603979776	0	0
620756992	0	0
637534208	0	0
654311424	0	0
671088640	0	0
687865856	0	0
704643072	0	0
721420288	0	0
738197504	0	0
754974720	0	0
771751936	0	0
788529152	0	0
805306368	0	0
822083584	0	0
838860800	0	0
855638016	0	0
872415232	0	0
889192448	0	0
905969664	0	0
922746880	0	0
939524096	0	0
956301312	0	0
973078528	0	0
989855744	0	0
1006632960	0	0
1023410176	0	0
1040187392	0	0
1056964608	0	0
1073741824	0	0
1107296256	0	0
1140850688	0	0
1174405120	0	0
1207959552	0	0
1241513984	0	0
1275068416	0	0
1308622848	0	0
1342177280	0	0
1375731712	0	0
1409286144	0	0
1442840576	0	0
1476395008	0	0
1509949440	0	0
1543503872	0	0
1577058304	0	0
1610612736	0	0
1644167168	0	0
1677721600	0	0
1711276032	0	0
1744830464	0	0
1778384896	0	0
1811939328	0	0
1845493760	0	0
1879048192	0	0
1912602624	0	0
1946157056	0	0
1979711488	0	0
2013265920	0	0
2046820352	0	0
2080374784	0	0
2113929216	0	0
2147483648	0	0
2214592512	0	0
2281701376	0	0
2348810240	0	0
2415919104	0	0
2483027968	0	0
2550136832	0	0
2617245696	0	0
2684354560	0	0
2751463424	0	0
2818572288	0	0
2885681152	0	0
2952790016	0	0
3019898880	0	0
3087007744	0	0
3154116608	0	0
3221225472	0	0
3288334336	0	0
3355443200	0	0
3422552064	0	0
3489660928	0	0
3556769792	0	0
3623878656	0	0
3690987520	0	0
3758096384	0	0
3825205248	0	0
3892314112	0	0
3959422976	0	0
4026531840	0	0
4093640704	0	0
4160749568	0	0
4227858432	0	0
~~~~~~~~~~Reuse Distance Profiler output end~~~~~~~~~~

DRAM Statistics
 CHANNEL 0
 RQ ROW_BUFFER_HIT:         37  ROW_BUFFER_MISS:        327
 DBUS AVG_CONGESTED_CYCLE:    3.78049
 WQ ROW_BUFFER_HIT:          0  ROW_BUFFER_MISS:          0  FULL:          0


CPU 0 Branch Prediction Accuracy: 74.8738% MPKI: 35.3613 Average ROB Occupancy at Mispredict: 12.9109
Branch type MPKI
BRANCH_DIRECT_JUMP: 3.2e-05
BRANCH_INDIRECT: 1.93333e-05
BRANCH_CONDITIONAL: 35.3611
BRANCH_DIRECT_CALL: 4.33333e-05
BRANCH_INDIRECT_CALL: 2.66667e-06
BRANCH_RETURN: 3.8e-05

