
*** ChampSim Multicore Out-of-Order Simulator ***

Warmup Instructions: 500000000
Simulation Instructions: 1500000000
Number of CPUs: 1
Off-chip DRAM Size: 4 GiB Channels: 1 Width: 64-bit Data Rate: 3200 MT/s

VirtualMemory physical capacity: 8588881920 num_ppages: 2096895
VirtualMemory page size: 4096 log2_page_size: 12

CPU 0 runs traces/648.exchange2_s-387B.champsimtrace.xz
CPU 0 Bimodal branch predictor
Basic BTB sets: 1024 ways: 8 indirect buffer size: 4096 RAS size: 64
Initializing LRU.
Initializing LRU.
Initializing LRU.
Initializing LRU.
Initializing rdLRU.
Initializing LRU.
Initializing LRU.
Heartbeat CPU 0 instructions: 10000003 cycles: 2500210 heartbeat IPC: 3.99967 cumulative IPC: 3.99967 (Simulation time: 0 hr 0 min 53 sec) 
Heartbeat CPU 0 instructions: 20000000 cycles: 5004695 heartbeat IPC: 3.99284 cumulative IPC: 3.99625 (Simulation time: 0 hr 1 min 39 sec) 
Heartbeat CPU 0 instructions: 30000001 cycles: 7505692 heartbeat IPC: 3.99841 cumulative IPC: 3.99697 (Simulation time: 0 hr 2 min 26 sec) 
Heartbeat CPU 0 instructions: 40000002 cycles: 10006689 heartbeat IPC: 3.99841 cumulative IPC: 3.99733 (Simulation time: 0 hr 2 min 56 sec) 
Heartbeat CPU 0 instructions: 50000000 cycles: 12508018 heartbeat IPC: 3.99787 cumulative IPC: 3.99744 (Simulation time: 0 hr 3 min 38 sec) 
Heartbeat CPU 0 instructions: 60000000 cycles: 15021293 heartbeat IPC: 3.97887 cumulative IPC: 3.99433 (Simulation time: 0 hr 4 min 23 sec) 
Heartbeat CPU 0 instructions: 70000003 cycles: 17525670 heartbeat IPC: 3.99301 cumulative IPC: 3.99414 (Simulation time: 0 hr 5 min 8 sec) 
Heartbeat CPU 0 instructions: 80000000 cycles: 20032741 heartbeat IPC: 3.98872 cumulative IPC: 3.99346 (Simulation time: 0 hr 5 min 49 sec) 
Heartbeat CPU 0 instructions: 90000002 cycles: 22534403 heartbeat IPC: 3.99734 cumulative IPC: 3.99389 (Simulation time: 0 hr 6 min 36 sec) 
Heartbeat CPU 0 instructions: 100000002 cycles: 25035733 heartbeat IPC: 3.99787 cumulative IPC: 3.99429 (Simulation time: 0 hr 7 min 22 sec) 
Heartbeat CPU 0 instructions: 110000001 cycles: 27536731 heartbeat IPC: 3.9984 cumulative IPC: 3.99466 (Simulation time: 0 hr 8 min 13 sec) 
Heartbeat CPU 0 instructions: 120000003 cycles: 30038060 heartbeat IPC: 3.99788 cumulative IPC: 3.99493 (Simulation time: 0 hr 9 min 6 sec) 
Heartbeat CPU 0 instructions: 130000002 cycles: 32539390 heartbeat IPC: 3.99787 cumulative IPC: 3.99516 (Simulation time: 0 hr 9 min 59 sec) 
Heartbeat CPU 0 instructions: 140000002 cycles: 35043773 heartbeat IPC: 3.993 cumulative IPC: 3.995 (Simulation time: 0 hr 10 min 52 sec) 
Heartbeat CPU 0 instructions: 150000002 cycles: 37550112 heartbeat IPC: 3.98988 cumulative IPC: 3.99466 (Simulation time: 0 hr 11 min 42 sec) 
Heartbeat CPU 0 instructions: 160000000 cycles: 40050590 heartbeat IPC: 3.99923 cumulative IPC: 3.99495 (Simulation time: 0 hr 12 min 32 sec) 
Heartbeat CPU 0 instructions: 170000000 cycles: 42563130 heartbeat IPC: 3.98004 cumulative IPC: 3.99407 (Simulation time: 0 hr 13 min 15 sec) 
Heartbeat CPU 0 instructions: 180000000 cycles: 45064791 heartbeat IPC: 3.99734 cumulative IPC: 3.99425 (Simulation time: 0 hr 13 min 59 sec) 
Heartbeat CPU 0 instructions: 190000000 cycles: 47566159 heartbeat IPC: 3.99781 cumulative IPC: 3.99444 (Simulation time: 0 hr 14 min 45 sec) 
Heartbeat CPU 0 instructions: 200000000 cycles: 50067156 heartbeat IPC: 3.99841 cumulative IPC: 3.99463 (Simulation time: 0 hr 15 min 23 sec) 
Heartbeat CPU 0 instructions: 210000002 cycles: 52568006 heartbeat IPC: 3.99864 cumulative IPC: 3.99483 (Simulation time: 0 hr 16 min 0 sec) 
Heartbeat CPU 0 instructions: 220000003 cycles: 55068153 heartbeat IPC: 3.99977 cumulative IPC: 3.99505 (Simulation time: 0 hr 16 min 40 sec) 
Heartbeat CPU 0 instructions: 230000002 cycles: 57571698 heartbeat IPC: 3.99434 cumulative IPC: 3.99502 (Simulation time: 0 hr 17 min 28 sec) 
Heartbeat CPU 0 instructions: 240000002 cycles: 60071698 heartbeat IPC: 4 cumulative IPC: 3.99523 (Simulation time: 0 hr 18 min 20 sec) 
Heartbeat CPU 0 instructions: 250000002 cycles: 62575580 heartbeat IPC: 3.9938 cumulative IPC: 3.99517 (Simulation time: 0 hr 19 min 8 sec) 
Heartbeat CPU 0 instructions: 260000002 cycles: 65079930 heartbeat IPC: 3.99305 cumulative IPC: 3.99509 (Simulation time: 0 hr 19 min 54 sec) 
Heartbeat CPU 0 instructions: 270000001 cycles: 67584315 heartbeat IPC: 3.993 cumulative IPC: 3.99501 (Simulation time: 0 hr 20 min 40 sec) 
Heartbeat CPU 0 instructions: 280000001 cycles: 70085313 heartbeat IPC: 3.9984 cumulative IPC: 3.99513 (Simulation time: 0 hr 21 min 25 sec) 
Heartbeat CPU 0 instructions: 290000002 cycles: 72589553 heartbeat IPC: 3.99323 cumulative IPC: 3.99507 (Simulation time: 0 hr 22 min 8 sec) 
Heartbeat CPU 0 instructions: 300000001 cycles: 75096728 heartbeat IPC: 3.98855 cumulative IPC: 3.99485 (Simulation time: 0 hr 22 min 54 sec) 
Heartbeat CPU 0 instructions: 310000001 cycles: 77597208 heartbeat IPC: 3.99923 cumulative IPC: 3.99499 (Simulation time: 0 hr 23 min 43 sec) 
Heartbeat CPU 0 instructions: 320000002 cycles: 80097393 heartbeat IPC: 3.9997 cumulative IPC: 3.99514 (Simulation time: 0 hr 24 min 35 sec) 
Heartbeat CPU 0 instructions: 330000002 cycles: 82603856 heartbeat IPC: 3.98969 cumulative IPC: 3.99497 (Simulation time: 0 hr 25 min 15 sec) 
Heartbeat CPU 0 instructions: 340000003 cycles: 85104336 heartbeat IPC: 3.99923 cumulative IPC: 3.9951 (Simulation time: 0 hr 26 min 6 sec) 
Heartbeat CPU 0 instructions: 350000002 cycles: 87605001 heartbeat IPC: 3.99894 cumulative IPC: 3.99521 (Simulation time: 0 hr 26 min 58 sec) 
Heartbeat CPU 0 instructions: 360000002 cycles: 90108407 heartbeat IPC: 3.99456 cumulative IPC: 3.99519 (Simulation time: 0 hr 27 min 55 sec) 
Heartbeat CPU 0 instructions: 370000002 cycles: 92615434 heartbeat IPC: 3.98879 cumulative IPC: 3.99501 (Simulation time: 0 hr 28 min 44 sec) 
Heartbeat CPU 0 instructions: 380000002 cycles: 95116247 heartbeat IPC: 3.9987 cumulative IPC: 3.99511 (Simulation time: 0 hr 29 min 32 sec) 
Heartbeat CPU 0 instructions: 390000001 cycles: 97617241 heartbeat IPC: 3.99841 cumulative IPC: 3.9952 (Simulation time: 0 hr 30 min 21 sec) 
Heartbeat CPU 0 instructions: 400000002 cycles: 100125001 heartbeat IPC: 3.98762 cumulative IPC: 3.99501 (Simulation time: 0 hr 31 min 12 sec) 
Heartbeat CPU 0 instructions: 410000002 cycles: 102625519 heartbeat IPC: 3.99917 cumulative IPC: 3.99511 (Simulation time: 0 hr 32 min 1 sec) 
Heartbeat CPU 0 instructions: 420000001 cycles: 105126183 heartbeat IPC: 3.99894 cumulative IPC: 3.9952 (Simulation time: 0 hr 32 min 57 sec) 
Heartbeat CPU 0 instructions: 430000001 cycles: 107626183 heartbeat IPC: 4 cumulative IPC: 3.99531 (Simulation time: 0 hr 33 min 38 sec) 
Heartbeat CPU 0 instructions: 440000001 cycles: 110126183 heartbeat IPC: 4 cumulative IPC: 3.99542 (Simulation time: 0 hr 34 min 32 sec) 
Heartbeat CPU 0 instructions: 450000001 cycles: 112626183 heartbeat IPC: 4 cumulative IPC: 3.99552 (Simulation time: 0 hr 35 min 22 sec) 
Heartbeat CPU 0 instructions: 460000003 cycles: 115126331 heartbeat IPC: 3.99976 cumulative IPC: 3.99561 (Simulation time: 0 hr 36 min 17 sec) 
Heartbeat CPU 0 instructions: 470000001 cycles: 117627328 heartbeat IPC: 3.9984 cumulative IPC: 3.99567 (Simulation time: 0 hr 37 min 7 sec) 
Heartbeat CPU 0 instructions: 480000002 cycles: 120127661 heartbeat IPC: 3.99947 cumulative IPC: 3.99575 (Simulation time: 0 hr 37 min 54 sec) 
Heartbeat CPU 0 instructions: 490000003 cycles: 122629623 heartbeat IPC: 3.99686 cumulative IPC: 3.99577 (Simulation time: 0 hr 38 min 42 sec) 
Heartbeat CPU 0 instructions: 500000001 cycles: 125132694 heartbeat IPC: 3.99509 cumulative IPC: 3.99576 (Simulation time: 0 hr 39 min 23 sec) 

Warmup complete CPU 0 instructions: 500000001 cycles: 125132694 (Simulation time: 0 hr 39 min 23 sec) 

Heartbeat CPU 0 instructions: 510000003 cycles: 133514957 heartbeat IPC: 1.193 cumulative IPC: 1.193 (Simulation time: 0 hr 40 min 1 sec) 
Heartbeat CPU 0 instructions: 520000001 cycles: 141553209 heartbeat IPC: 1.24405 cumulative IPC: 1.21799 (Simulation time: 0 hr 40 min 50 sec) 
Heartbeat CPU 0 instructions: 530000002 cycles: 149784431 heartbeat IPC: 1.21489 cumulative IPC: 1.21695 (Simulation time: 0 hr 41 min 38 sec) 
Heartbeat CPU 0 instructions: 540000001 cycles: 157854036 heartbeat IPC: 1.23922 cumulative IPC: 1.22244 (Simulation time: 0 hr 42 min 20 sec) 
Heartbeat CPU 0 instructions: 550000000 cycles: 165942061 heartbeat IPC: 1.2364 cumulative IPC: 1.22521 (Simulation time: 0 hr 43 min 5 sec) 
Heartbeat CPU 0 instructions: 560000002 cycles: 174166332 heartbeat IPC: 1.21591 cumulative IPC: 1.22365 (Simulation time: 0 hr 43 min 50 sec) 
Heartbeat CPU 0 instructions: 570000001 cycles: 182469281 heartbeat IPC: 1.20439 cumulative IPC: 1.22086 (Simulation time: 0 hr 44 min 32 sec) 
Heartbeat CPU 0 instructions: 580000000 cycles: 190765840 heartbeat IPC: 1.20532 cumulative IPC: 1.2189 (Simulation time: 0 hr 45 min 19 sec) 
Heartbeat CPU 0 instructions: 590000000 cycles: 199081632 heartbeat IPC: 1.20253 cumulative IPC: 1.21706 (Simulation time: 0 hr 46 min 5 sec) 
Heartbeat CPU 0 instructions: 600000002 cycles: 207480258 heartbeat IPC: 1.19067 cumulative IPC: 1.21437 (Simulation time: 0 hr 46 min 48 sec) 
Heartbeat CPU 0 instructions: 610000000 cycles: 215557490 heartbeat IPC: 1.23805 cumulative IPC: 1.21648 (Simulation time: 0 hr 47 min 34 sec) 
Heartbeat CPU 0 instructions: 620000002 cycles: 223800263 heartbeat IPC: 1.21318 cumulative IPC: 1.21621 (Simulation time: 0 hr 48 min 13 sec) 
Heartbeat CPU 0 instructions: 630000000 cycles: 232007777 heartbeat IPC: 1.2184 cumulative IPC: 1.21637 (Simulation time: 0 hr 49 min 1 sec) 
Heartbeat CPU 0 instructions: 640000002 cycles: 240239458 heartbeat IPC: 1.21482 cumulative IPC: 1.21626 (Simulation time: 0 hr 49 min 43 sec) 
Heartbeat CPU 0 instructions: 650000003 cycles: 248561745 heartbeat IPC: 1.20159 cumulative IPC: 1.21527 (Simulation time: 0 hr 50 min 21 sec) 
Heartbeat CPU 0 instructions: 660000000 cycles: 256706699 heartbeat IPC: 1.22775 cumulative IPC: 1.21605 (Simulation time: 0 hr 51 min 9 sec) 
Heartbeat CPU 0 instructions: 670000000 cycles: 265012136 heartbeat IPC: 1.20403 cumulative IPC: 1.21533 (Simulation time: 0 hr 51 min 48 sec) 
Heartbeat CPU 0 instructions: 680000003 cycles: 273196337 heartbeat IPC: 1.22187 cumulative IPC: 1.21569 (Simulation time: 0 hr 52 min 39 sec) 
Heartbeat CPU 0 instructions: 690000000 cycles: 281162016 heartbeat IPC: 1.25539 cumulative IPC: 1.21772 (Simulation time: 0 hr 53 min 25 sec) 
Heartbeat CPU 0 instructions: 700000002 cycles: 289117302 heartbeat IPC: 1.25703 cumulative IPC: 1.21963 (Simulation time: 0 hr 54 min 10 sec) 
Heartbeat CPU 0 instructions: 710000000 cycles: 297209572 heartbeat IPC: 1.23575 cumulative IPC: 1.22038 (Simulation time: 0 hr 54 min 53 sec) 
Heartbeat CPU 0 instructions: 720000000 cycles: 305519217 heartbeat IPC: 1.20342 cumulative IPC: 1.2196 (Simulation time: 0 hr 55 min 35 sec) 
Heartbeat CPU 0 instructions: 730000001 cycles: 313956350 heartbeat IPC: 1.18524 cumulative IPC: 1.21807 (Simulation time: 0 hr 56 min 21 sec) 
Heartbeat CPU 0 instructions: 740000000 cycles: 322270975 heartbeat IPC: 1.2027 cumulative IPC: 1.21742 (Simulation time: 0 hr 57 min 4 sec) 
Heartbeat CPU 0 instructions: 750000001 cycles: 330456072 heartbeat IPC: 1.22173 cumulative IPC: 1.21759 (Simulation time: 0 hr 57 min 53 sec) 
Heartbeat CPU 0 instructions: 760000002 cycles: 338486265 heartbeat IPC: 1.2453 cumulative IPC: 1.21863 (Simulation time: 0 hr 58 min 43 sec) 
Heartbeat CPU 0 instructions: 770000001 cycles: 346553244 heartbeat IPC: 1.23962 cumulative IPC: 1.2194 (Simulation time: 0 hr 59 min 31 sec) 
Heartbeat CPU 0 instructions: 780000003 cycles: 354625049 heartbeat IPC: 1.23888 cumulative IPC: 1.22008 (Simulation time: 1 hr 0 min 17 sec) 
Heartbeat CPU 0 instructions: 790000000 cycles: 362547945 heartbeat IPC: 1.26216 cumulative IPC: 1.22149 (Simulation time: 1 hr 1 min 8 sec) 
Heartbeat CPU 0 instructions: 800000000 cycles: 370653239 heartbeat IPC: 1.23376 cumulative IPC: 1.22189 (Simulation time: 1 hr 1 min 39 sec) 
Heartbeat CPU 0 instructions: 810000000 cycles: 378750225 heartbeat IPC: 1.23503 cumulative IPC: 1.22231 (Simulation time: 1 hr 2 min 18 sec) 
Heartbeat CPU 0 instructions: 820000002 cycles: 386758666 heartbeat IPC: 1.24868 cumulative IPC: 1.22312 (Simulation time: 1 hr 3 min 7 sec) 
Heartbeat CPU 0 instructions: 830000000 cycles: 394838230 heartbeat IPC: 1.23769 cumulative IPC: 1.22356 (Simulation time: 1 hr 3 min 51 sec) 
Heartbeat CPU 0 instructions: 840000000 cycles: 402938093 heartbeat IPC: 1.23459 cumulative IPC: 1.22388 (Simulation time: 1 hr 4 min 36 sec) 
Heartbeat CPU 0 instructions: 850000001 cycles: 410973400 heartbeat IPC: 1.24451 cumulative IPC: 1.22446 (Simulation time: 1 hr 5 min 24 sec) 
Heartbeat CPU 0 instructions: 860000003 cycles: 419012870 heartbeat IPC: 1.24386 cumulative IPC: 1.22499 (Simulation time: 1 hr 6 min 1 sec) 
Heartbeat CPU 0 instructions: 870000003 cycles: 427045051 heartbeat IPC: 1.24499 cumulative IPC: 1.22552 (Simulation time: 1 hr 6 min 41 sec) 
Heartbeat CPU 0 instructions: 880000000 cycles: 435027663 heartbeat IPC: 1.25272 cumulative IPC: 1.22622 (Simulation time: 1 hr 7 min 27 sec) 
Heartbeat CPU 0 instructions: 890000001 cycles: 443147661 heartbeat IPC: 1.23153 cumulative IPC: 1.22636 (Simulation time: 1 hr 8 min 15 sec) 
Heartbeat CPU 0 instructions: 900000004 cycles: 451255794 heartbeat IPC: 1.23333 cumulative IPC: 1.22653 (Simulation time: 1 hr 9 min 1 sec) 
Heartbeat CPU 0 instructions: 910000002 cycles: 459632450 heartbeat IPC: 1.19379 cumulative IPC: 1.22571 (Simulation time: 1 hr 9 min 43 sec) 
Heartbeat CPU 0 instructions: 920000002 cycles: 467665392 heartbeat IPC: 1.24487 cumulative IPC: 1.22616 (Simulation time: 1 hr 10 min 28 sec) 
Heartbeat CPU 0 instructions: 930000004 cycles: 475655371 heartbeat IPC: 1.25157 cumulative IPC: 1.22674 (Simulation time: 1 hr 11 min 12 sec) 
Heartbeat CPU 0 instructions: 940000002 cycles: 483612559 heartbeat IPC: 1.25673 cumulative IPC: 1.22741 (Simulation time: 1 hr 11 min 56 sec) 
Heartbeat CPU 0 instructions: 950000001 cycles: 491817805 heartbeat IPC: 1.21873 cumulative IPC: 1.22721 (Simulation time: 1 hr 12 min 44 sec) 
Heartbeat CPU 0 instructions: 960000003 cycles: 499902177 heartbeat IPC: 1.23695 cumulative IPC: 1.22742 (Simulation time: 1 hr 13 min 25 sec) 
Heartbeat CPU 0 instructions: 970000004 cycles: 507898615 heartbeat IPC: 1.25056 cumulative IPC: 1.2279 (Simulation time: 1 hr 14 min 7 sec) 
Heartbeat CPU 0 instructions: 980000004 cycles: 516162671 heartbeat IPC: 1.21006 cumulative IPC: 1.22753 (Simulation time: 1 hr 14 min 49 sec) 
Heartbeat CPU 0 instructions: 990000001 cycles: 524310983 heartbeat IPC: 1.22725 cumulative IPC: 1.22752 (Simulation time: 1 hr 15 min 38 sec) 
Heartbeat CPU 0 instructions: 1000000000 cycles: 532370820 heartbeat IPC: 1.24072 cumulative IPC: 1.22778 (Simulation time: 1 hr 16 min 19 sec) 
Heartbeat CPU 0 instructions: 1010000004 cycles: 540652385 heartbeat IPC: 1.2075 cumulative IPC: 1.22738 (Simulation time: 1 hr 17 min 6 sec) 
Heartbeat CPU 0 instructions: 1020000000 cycles: 548853296 heartbeat IPC: 1.21938 cumulative IPC: 1.22722 (Simulation time: 1 hr 17 min 52 sec) 
Heartbeat CPU 0 instructions: 1030000000 cycles: 557200492 heartbeat IPC: 1.19801 cumulative IPC: 1.22666 (Simulation time: 1 hr 18 min 29 sec) 
Heartbeat CPU 0 instructions: 1040000000 cycles: 565456129 heartbeat IPC: 1.21129 cumulative IPC: 1.22637 (Simulation time: 1 hr 19 min 16 sec) 
Heartbeat CPU 0 instructions: 1050000001 cycles: 573734493 heartbeat IPC: 1.20797 cumulative IPC: 1.22603 (Simulation time: 1 hr 19 min 59 sec) 
Heartbeat CPU 0 instructions: 1060000004 cycles: 581920009 heartbeat IPC: 1.22167 cumulative IPC: 1.22595 (Simulation time: 1 hr 20 min 45 sec) 
Heartbeat CPU 0 instructions: 1070000001 cycles: 590012837 heartbeat IPC: 1.23566 cumulative IPC: 1.22612 (Simulation time: 1 hr 21 min 33 sec) 
Heartbeat CPU 0 instructions: 1080000000 cycles: 598138635 heartbeat IPC: 1.23065 cumulative IPC: 1.2262 (Simulation time: 1 hr 22 min 21 sec) 
Heartbeat CPU 0 instructions: 1090000002 cycles: 606283870 heartbeat IPC: 1.22771 cumulative IPC: 1.22623 (Simulation time: 1 hr 23 min 11 sec) 
Heartbeat CPU 0 instructions: 1100000000 cycles: 614373194 heartbeat IPC: 1.2362 cumulative IPC: 1.22639 (Simulation time: 1 hr 24 min 1 sec) 
Heartbeat CPU 0 instructions: 1110000003 cycles: 622400917 heartbeat IPC: 1.24568 cumulative IPC: 1.2267 (Simulation time: 1 hr 24 min 52 sec) 
Heartbeat CPU 0 instructions: 1120000002 cycles: 630480378 heartbeat IPC: 1.23771 cumulative IPC: 1.22688 (Simulation time: 1 hr 25 min 33 sec) 
Heartbeat CPU 0 instructions: 1130000000 cycles: 638569973 heartbeat IPC: 1.23616 cumulative IPC: 1.22702 (Simulation time: 1 hr 26 min 6 sec) 
Heartbeat CPU 0 instructions: 1140000000 cycles: 646746330 heartbeat IPC: 1.22304 cumulative IPC: 1.22696 (Simulation time: 1 hr 26 min 58 sec) 
Heartbeat CPU 0 instructions: 1150000000 cycles: 655014648 heartbeat IPC: 1.20944 cumulative IPC: 1.22669 (Simulation time: 1 hr 27 min 42 sec) 
Heartbeat CPU 0 instructions: 1160000001 cycles: 663248299 heartbeat IPC: 1.21453 cumulative IPC: 1.2265 (Simulation time: 1 hr 28 min 20 sec) 
Heartbeat CPU 0 instructions: 1170000003 cycles: 671789269 heartbeat IPC: 1.17083 cumulative IPC: 1.22563 (Simulation time: 1 hr 28 min 58 sec) 
Heartbeat CPU 0 instructions: 1180000001 cycles: 679794516 heartbeat IPC: 1.24918 cumulative IPC: 1.22597 (Simulation time: 1 hr 29 min 44 sec) 
Heartbeat CPU 0 instructions: 1190000000 cycles: 687994143 heartbeat IPC: 1.21957 cumulative IPC: 1.22588 (Simulation time: 1 hr 30 min 17 sec) 
Heartbeat CPU 0 instructions: 1200000003 cycles: 696118154 heartbeat IPC: 1.23092 cumulative IPC: 1.22595 (Simulation time: 1 hr 30 min 58 sec) 
Heartbeat CPU 0 instructions: 1210000002 cycles: 704454603 heartbeat IPC: 1.19955 cumulative IPC: 1.22557 (Simulation time: 1 hr 31 min 39 sec) 
Heartbeat CPU 0 instructions: 1220000000 cycles: 712940888 heartbeat IPC: 1.17837 cumulative IPC: 1.22489 (Simulation time: 1 hr 32 min 28 sec) 
Heartbeat CPU 0 instructions: 1230000001 cycles: 721124286 heartbeat IPC: 1.22199 cumulative IPC: 1.22485 (Simulation time: 1 hr 33 min 17 sec) 
Heartbeat CPU 0 instructions: 1240000004 cycles: 729589852 heartbeat IPC: 1.18126 cumulative IPC: 1.22424 (Simulation time: 1 hr 34 min 4 sec) 
Heartbeat CPU 0 instructions: 1250000000 cycles: 737653597 heartbeat IPC: 1.24012 cumulative IPC: 1.22445 (Simulation time: 1 hr 34 min 54 sec) 
Heartbeat CPU 0 instructions: 1260000004 cycles: 745931060 heartbeat IPC: 1.2081 cumulative IPC: 1.22423 (Simulation time: 1 hr 35 min 41 sec) 
Heartbeat CPU 0 instructions: 1270000000 cycles: 754323516 heartbeat IPC: 1.19155 cumulative IPC: 1.22379 (Simulation time: 1 hr 36 min 25 sec) 
Heartbeat CPU 0 instructions: 1280000002 cycles: 762626297 heartbeat IPC: 1.20442 cumulative IPC: 1.22354 (Simulation time: 1 hr 37 min 15 sec) 
Heartbeat CPU 0 instructions: 1290000000 cycles: 770710568 heartbeat IPC: 1.23697 cumulative IPC: 1.22371 (Simulation time: 1 hr 37 min 54 sec) 
Heartbeat CPU 0 instructions: 1300000003 cycles: 778873430 heartbeat IPC: 1.22506 cumulative IPC: 1.22373 (Simulation time: 1 hr 38 min 43 sec) 
Heartbeat CPU 0 instructions: 1310000000 cycles: 786937193 heartbeat IPC: 1.24012 cumulative IPC: 1.22393 (Simulation time: 1 hr 39 min 30 sec) 
Heartbeat CPU 0 instructions: 1320000001 cycles: 795012778 heartbeat IPC: 1.2383 cumulative IPC: 1.2241 (Simulation time: 1 hr 40 min 11 sec) 
Heartbeat CPU 0 instructions: 1330000000 cycles: 803481790 heartbeat IPC: 1.18078 cumulative IPC: 1.22356 (Simulation time: 1 hr 41 min 1 sec) 
Heartbeat CPU 0 instructions: 1340000004 cycles: 811858042 heartbeat IPC: 1.19385 cumulative IPC: 1.2232 (Simulation time: 1 hr 41 min 50 sec) 
Heartbeat CPU 0 instructions: 1350000000 cycles: 820263479 heartbeat IPC: 1.18971 cumulative IPC: 1.22279 (Simulation time: 1 hr 42 min 37 sec) 
Heartbeat CPU 0 instructions: 1360000003 cycles: 828540714 heartbeat IPC: 1.20813 cumulative IPC: 1.22262 (Simulation time: 1 hr 43 min 18 sec) 
Heartbeat CPU 0 instructions: 1370000004 cycles: 836672840 heartbeat IPC: 1.22969 cumulative IPC: 1.2227 (Simulation time: 1 hr 44 min 8 sec) 
Heartbeat CPU 0 instructions: 1380000000 cycles: 845023654 heartbeat IPC: 1.19749 cumulative IPC: 1.22241 (Simulation time: 1 hr 44 min 56 sec) 
Heartbeat CPU 0 instructions: 1390000002 cycles: 853479839 heartbeat IPC: 1.18257 cumulative IPC: 1.22194 (Simulation time: 1 hr 45 min 43 sec) 
Heartbeat CPU 0 instructions: 1400000001 cycles: 861816178 heartbeat IPC: 1.19957 cumulative IPC: 1.22169 (Simulation time: 1 hr 46 min 32 sec) 
Heartbeat CPU 0 instructions: 1410000000 cycles: 869792108 heartbeat IPC: 1.25377 cumulative IPC: 1.22204 (Simulation time: 1 hr 47 min 21 sec) 
Heartbeat CPU 0 instructions: 1420000002 cycles: 878217478 heartbeat IPC: 1.18689 cumulative IPC: 1.22164 (Simulation time: 1 hr 48 min 7 sec) 
Heartbeat CPU 0 instructions: 1430000003 cycles: 886315902 heartbeat IPC: 1.23481 cumulative IPC: 1.22178 (Simulation time: 1 hr 48 min 45 sec) 
Heartbeat CPU 0 instructions: 1440000003 cycles: 894560505 heartbeat IPC: 1.21291 cumulative IPC: 1.22169 (Simulation time: 1 hr 49 min 35 sec) 
Heartbeat CPU 0 instructions: 1450000000 cycles: 902935947 heartbeat IPC: 1.19397 cumulative IPC: 1.22139 (Simulation time: 1 hr 50 min 25 sec) 
Heartbeat CPU 0 instructions: 1460000002 cycles: 911062153 heartbeat IPC: 1.23059 cumulative IPC: 1.22148 (Simulation time: 1 hr 51 min 14 sec) 
Heartbeat CPU 0 instructions: 1470000000 cycles: 919504159 heartbeat IPC: 1.18455 cumulative IPC: 1.22109 (Simulation time: 1 hr 51 min 57 sec) 
Heartbeat CPU 0 instructions: 1480000002 cycles: 927659549 heartbeat IPC: 1.22618 cumulative IPC: 1.22114 (Simulation time: 1 hr 52 min 43 sec) 
Heartbeat CPU 0 instructions: 1490000000 cycles: 935753439 heartbeat IPC: 1.2355 cumulative IPC: 1.22129 (Simulation time: 1 hr 53 min 23 sec) 
Heartbeat CPU 0 instructions: 1500000001 cycles: 944096141 heartbeat IPC: 1.19865 cumulative IPC: 1.22106 (Simulation time: 1 hr 54 min 5 sec) 
Heartbeat CPU 0 instructions: 1510000000 cycles: 952255121 heartbeat IPC: 1.22564 cumulative IPC: 1.2211 (Simulation time: 1 hr 54 min 48 sec) 
Heartbeat CPU 0 instructions: 1520000001 cycles: 960671077 heartbeat IPC: 1.18822 cumulative IPC: 1.22077 (Simulation time: 1 hr 55 min 29 sec) 
Heartbeat CPU 0 instructions: 1530000000 cycles: 968786544 heartbeat IPC: 1.23221 cumulative IPC: 1.22088 (Simulation time: 1 hr 56 min 12 sec) 
Heartbeat CPU 0 instructions: 1540000001 cycles: 976829898 heartbeat IPC: 1.24326 cumulative IPC: 1.22109 (Simulation time: 1 hr 56 min 52 sec) 
Heartbeat CPU 0 instructions: 1550000001 cycles: 984909357 heartbeat IPC: 1.23771 cumulative IPC: 1.22125 (Simulation time: 1 hr 57 min 33 sec) 
Heartbeat CPU 0 instructions: 1560000004 cycles: 993367546 heartbeat IPC: 1.18229 cumulative IPC: 1.22087 (Simulation time: 1 hr 58 min 19 sec) 
Heartbeat CPU 0 instructions: 1570000004 cycles: 1001714090 heartbeat IPC: 1.1981 cumulative IPC: 1.22065 (Simulation time: 1 hr 59 min 7 sec) 
Heartbeat CPU 0 instructions: 1580000003 cycles: 1010040859 heartbeat IPC: 1.20095 cumulative IPC: 1.22047 (Simulation time: 1 hr 59 min 49 sec) 
Heartbeat CPU 0 instructions: 1590000004 cycles: 1018549023 heartbeat IPC: 1.17534 cumulative IPC: 1.22004 (Simulation time: 2 hr 0 min 28 sec) 
Heartbeat CPU 0 instructions: 1600000003 cycles: 1026919187 heartbeat IPC: 1.19472 cumulative IPC: 1.2198 (Simulation time: 2 hr 1 min 3 sec) 
Heartbeat CPU 0 instructions: 1610000000 cycles: 1035272828 heartbeat IPC: 1.19708 cumulative IPC: 1.21959 (Simulation time: 2 hr 1 min 49 sec) 
Heartbeat CPU 0 instructions: 1620000003 cycles: 1043548358 heartbeat IPC: 1.20838 cumulative IPC: 1.21949 (Simulation time: 2 hr 2 min 37 sec) 
Heartbeat CPU 0 instructions: 1630000002 cycles: 1051784525 heartbeat IPC: 1.21416 cumulative IPC: 1.21944 (Simulation time: 2 hr 3 min 16 sec) 
Heartbeat CPU 0 instructions: 1640000000 cycles: 1060093879 heartbeat IPC: 1.20346 cumulative IPC: 1.2193 (Simulation time: 2 hr 3 min 51 sec) 
Heartbeat CPU 0 instructions: 1650000002 cycles: 1068403039 heartbeat IPC: 1.20349 cumulative IPC: 1.21916 (Simulation time: 2 hr 4 min 25 sec) 
Heartbeat CPU 0 instructions: 1660000000 cycles: 1076729643 heartbeat IPC: 1.20097 cumulative IPC: 1.219 (Simulation time: 2 hr 5 min 2 sec) 
Heartbeat CPU 0 instructions: 1670000000 cycles: 1085075726 heartbeat IPC: 1.19817 cumulative IPC: 1.21882 (Simulation time: 2 hr 5 min 46 sec) 
Heartbeat CPU 0 instructions: 1680000002 cycles: 1093296722 heartbeat IPC: 1.2164 cumulative IPC: 1.2188 (Simulation time: 2 hr 6 min 25 sec) 
Heartbeat CPU 0 instructions: 1690000002 cycles: 1101585296 heartbeat IPC: 1.20648 cumulative IPC: 1.2187 (Simulation time: 2 hr 7 min 13 sec) 
Heartbeat CPU 0 instructions: 1700000003 cycles: 1109981590 heartbeat IPC: 1.191 cumulative IPC: 1.21846 (Simulation time: 2 hr 7 min 58 sec) 
Heartbeat CPU 0 instructions: 1710000000 cycles: 1118390250 heartbeat IPC: 1.18925 cumulative IPC: 1.21821 (Simulation time: 2 hr 8 min 44 sec) 
Heartbeat CPU 0 instructions: 1720000002 cycles: 1126636028 heartbeat IPC: 1.21274 cumulative IPC: 1.21817 (Simulation time: 2 hr 9 min 30 sec) 
Heartbeat CPU 0 instructions: 1730000000 cycles: 1135053476 heartbeat IPC: 1.18801 cumulative IPC: 1.21792 (Simulation time: 2 hr 10 min 14 sec) 
Heartbeat CPU 0 instructions: 1740000000 cycles: 1143420663 heartbeat IPC: 1.19514 cumulative IPC: 1.21773 (Simulation time: 2 hr 10 min 54 sec) 
Heartbeat CPU 0 instructions: 1750000004 cycles: 1151594256 heartbeat IPC: 1.22345 cumulative IPC: 1.21778 (Simulation time: 2 hr 11 min 38 sec) 
Heartbeat CPU 0 instructions: 1760000002 cycles: 1159923961 heartbeat IPC: 1.20052 cumulative IPC: 1.21764 (Simulation time: 2 hr 12 min 27 sec) 
Heartbeat CPU 0 instructions: 1770000001 cycles: 1168326133 heartbeat IPC: 1.19017 cumulative IPC: 1.21742 (Simulation time: 2 hr 13 min 9 sec) 
Heartbeat CPU 0 instructions: 1780000000 cycles: 1176513038 heartbeat IPC: 1.22146 cumulative IPC: 1.21745 (Simulation time: 2 hr 13 min 58 sec) 
Heartbeat CPU 0 instructions: 1790000002 cycles: 1184908245 heartbeat IPC: 1.19116 cumulative IPC: 1.21724 (Simulation time: 2 hr 14 min 42 sec) 
Heartbeat CPU 0 instructions: 1800000004 cycles: 1193277697 heartbeat IPC: 1.19482 cumulative IPC: 1.21706 (Simulation time: 2 hr 15 min 32 sec) 
Heartbeat CPU 0 instructions: 1810000004 cycles: 1201490136 heartbeat IPC: 1.21767 cumulative IPC: 1.21707 (Simulation time: 2 hr 16 min 11 sec) 
Heartbeat CPU 0 instructions: 1820000000 cycles: 1209658454 heartbeat IPC: 1.22424 cumulative IPC: 1.21712 (Simulation time: 2 hr 16 min 56 sec) 
Heartbeat CPU 0 instructions: 1830000000 cycles: 1218074777 heartbeat IPC: 1.18817 cumulative IPC: 1.2169 (Simulation time: 2 hr 17 min 41 sec) 
Heartbeat CPU 0 instructions: 1840000003 cycles: 1226442229 heartbeat IPC: 1.19511 cumulative IPC: 1.21673 (Simulation time: 2 hr 18 min 27 sec) 
Heartbeat CPU 0 instructions: 1850000001 cycles: 1234842929 heartbeat IPC: 1.19038 cumulative IPC: 1.21653 (Simulation time: 2 hr 19 min 9 sec) 
Heartbeat CPU 0 instructions: 1860000002 cycles: 1243202832 heartbeat IPC: 1.19619 cumulative IPC: 1.21638 (Simulation time: 2 hr 19 min 53 sec) 
Heartbeat CPU 0 instructions: 1870000000 cycles: 1251607912 heartbeat IPC: 1.18976 cumulative IPC: 1.21618 (Simulation time: 2 hr 20 min 38 sec) 
Heartbeat CPU 0 instructions: 1880000004 cycles: 1259931935 heartbeat IPC: 1.20134 cumulative IPC: 1.21607 (Simulation time: 2 hr 21 min 26 sec) 
Heartbeat CPU 0 instructions: 1890000001 cycles: 1268360384 heartbeat IPC: 1.18646 cumulative IPC: 1.21586 (Simulation time: 2 hr 22 min 14 sec) 
Heartbeat CPU 0 instructions: 1900000004 cycles: 1276794500 heartbeat IPC: 1.18566 cumulative IPC: 1.21563 (Simulation time: 2 hr 22 min 57 sec) 
Heartbeat CPU 0 instructions: 1910000000 cycles: 1285071112 heartbeat IPC: 1.20822 cumulative IPC: 1.21558 (Simulation time: 2 hr 23 min 43 sec) 
Heartbeat CPU 0 instructions: 1920000001 cycles: 1293404259 heartbeat IPC: 1.20003 cumulative IPC: 1.21547 (Simulation time: 2 hr 24 min 30 sec) 
Heartbeat CPU 0 instructions: 1930000002 cycles: 1301976850 heartbeat IPC: 1.16651 cumulative IPC: 1.21511 (Simulation time: 2 hr 25 min 15 sec) 
Heartbeat CPU 0 instructions: 1940000000 cycles: 1310545619 heartbeat IPC: 1.16703 cumulative IPC: 1.21477 (Simulation time: 2 hr 26 min 3 sec) 
Heartbeat CPU 0 instructions: 1950000001 cycles: 1318993861 heartbeat IPC: 1.18368 cumulative IPC: 1.21455 (Simulation time: 2 hr 26 min 48 sec) 
Heartbeat CPU 0 instructions: 1960000001 cycles: 1327278238 heartbeat IPC: 1.20709 cumulative IPC: 1.2145 (Simulation time: 2 hr 27 min 37 sec) 
Heartbeat CPU 0 instructions: 1970000001 cycles: 1335494029 heartbeat IPC: 1.21717 cumulative IPC: 1.21451 (Simulation time: 2 hr 28 min 25 sec) 
Heartbeat CPU 0 instructions: 1980000004 cycles: 1343759921 heartbeat IPC: 1.20979 cumulative IPC: 1.21448 (Simulation time: 2 hr 29 min 13 sec) 
Heartbeat CPU 0 instructions: 1990000003 cycles: 1352073091 heartbeat IPC: 1.20291 cumulative IPC: 1.2144 (Simulation time: 2 hr 30 min 1 sec) 
*** Reached end of trace: traces/648.exchange2_s-387B.champsimtrace.xz
Heartbeat CPU 0 instructions: 2000000002 cycles: 1360450389 heartbeat IPC: 1.1937 cumulative IPC: 1.21426 (Simulation time: 2 hr 30 min 49 sec) 
Finished CPU 0 instructions: 1500000001 cycles: 1235317695 cumulative IPC: 1.21426 (Simulation time: 2 hr 30 min 49 sec) 

ChampSim completed all CPUs

Region of Interest Statistics

CPU 0 cumulative IPC: 1.21426 instructions: 1500000001 cycles: 1235317695
cpu0_DTLB TOTAL     ACCESS:  243264790  HIT:  243264790  MISS:          0
cpu0_DTLB LOAD      ACCESS:  135127471  HIT:  135127471  MISS:          0
cpu0_DTLB RFO       ACCESS:  108137319  HIT:  108137319  MISS:          0
cpu0_DTLB PREFETCH  ACCESS:          0  HIT:          0  MISS:          0
cpu0_DTLB WRITEBACK ACCESS:          0  HIT:          0  MISS:          0
cpu0_DTLB TRANSLATION ACCESS:          0  HIT:          0  MISS:          0
cpu0_DTLB PREFETCH  REQUESTED:          0  ISSUED:          0  USEFUL:          0  USELESS:          0
cpu0_DTLB AVERAGE MISS LATENCY: -nan cycles
cpu0_ITLB TOTAL     ACCESS:  156148050  HIT:  156148050  MISS:          0
cpu0_ITLB LOAD      ACCESS:  156148050  HIT:  156148050  MISS:          0
cpu0_ITLB RFO       ACCESS:          0  HIT:          0  MISS:          0
cpu0_ITLB PREFETCH  ACCESS:          0  HIT:          0  MISS:          0
cpu0_ITLB WRITEBACK ACCESS:          0  HIT:          0  MISS:          0
cpu0_ITLB TRANSLATION ACCESS:          0  HIT:          0  MISS:          0
cpu0_ITLB PREFETCH  REQUESTED:          0  ISSUED:          0  USEFUL:          0  USELESS:          0
cpu0_ITLB AVERAGE MISS LATENCY: -nan cycles
cpu0_L1I TOTAL     ACCESS:   81093180  HIT:   80695216  MISS:     397964
cpu0_L1I LOAD      ACCESS:   81093180  HIT:   80695216  MISS:     397964
cpu0_L1I RFO       ACCESS:          0  HIT:          0  MISS:          0
cpu0_L1I PREFETCH  ACCESS:          0  HIT:          0  MISS:          0
cpu0_L1I WRITEBACK ACCESS:          0  HIT:          0  MISS:          0
cpu0_L1I TRANSLATION ACCESS:          0  HIT:          0  MISS:          0
cpu0_L1I PREFETCH  REQUESTED:          0  ISSUED:          0  USEFUL:          0  USELESS:          0
cpu0_L1I AVERAGE MISS LATENCY: 11.0335 cycles
cpu0_L1D TOTAL     ACCESS:  390273737  HIT:  390273737  MISS:          0
cpu0_L1D LOAD      ACCESS:  196324276  HIT:  196324276  MISS:          0
cpu0_L1D RFO       ACCESS:  193949461  HIT:  193949461  MISS:          0
cpu0_L1D PREFETCH  ACCESS:          0  HIT:          0  MISS:          0
cpu0_L1D WRITEBACK ACCESS:          0  HIT:          0  MISS:          0
cpu0_L1D TRANSLATION ACCESS:          0  HIT:          0  MISS:          0
cpu0_L1D PREFETCH  REQUESTED:          0  ISSUED:          0  USEFUL:          0  USELESS:          0
cpu0_L1D AVERAGE MISS LATENCY: -nan cycles
cpu0_L2C TOTAL     ACCESS:     397964  HIT:     397869  MISS:         95
cpu0_L2C LOAD      ACCESS:     397964  HIT:     397869  MISS:         95
cpu0_L2C RFO       ACCESS:          0  HIT:          0  MISS:          0
cpu0_L2C PREFETCH  ACCESS:          0  HIT:          0  MISS:          0
cpu0_L2C WRITEBACK ACCESS:          0  HIT:          0  MISS:          0
cpu0_L2C TRANSLATION ACCESS:          0  HIT:          0  MISS:          0
cpu0_L2C PREFETCH  REQUESTED:          0  ISSUED:          0  USEFUL:          0  USELESS:          0
cpu0_L2C AVERAGE MISS LATENCY: 140.411 cycles
LLC TOTAL     ACCESS:         95  HIT:          0  MISS:         95
LLC LOAD      ACCESS:         95  HIT:          0  MISS:         95
LLC RFO       ACCESS:          0  HIT:          0  MISS:          0
LLC PREFETCH  ACCESS:          0  HIT:          0  MISS:          0
LLC WRITEBACK ACCESS:          0  HIT:          0  MISS:          0
LLC TRANSLATION ACCESS:          0  HIT:          0  MISS:          0
LLC PREFETCH  REQUESTED:          0  ISSUED:          0  USEFUL:          0  USELESS:          0
LLC AVERAGE MISS LATENCY: 119.411 cycles
~~~~~~~~~~Reuse Distance Profiler output~~~~~~~~~~
0	135163536	30303632
1	62850880	22352672
2	39127392	11516080
3	24129648	9135872
4	17539584	8088112
5	16975424	7108320
6	11470720	5749264
7	9322704	5146288
8	6483376	3597424
9	10028960	7977984
10	6166320	4764320
11	9767344	8418688
12	6351120	4757584
13	6028256	4693456
14	3940912	2826880
15	2670976	1903776
16	3277040	2698736
17	4211136	3469168
18	2615200	2050928
19	2084256	1607296
20	1974400	1488496
21	1709856	1245440
22	1944464	1585056
23	1632416	1346304
24	1574368	1268528
25	1123120	837424
26	1335472	912912
27	1118944	711264
28	1108320	844928
29	999552	629872
30	1012480	846560
31	1069648	825088
32	1206928	978208
33	1138016	913520
34	862832	696624
35	860912	681840
36	863792	714192
37	820096	663584
38	833184	624864
39	792064	664752
40	864080	731760
41	737664	590032
42	674624	536880
43	714000	579280
44	721536	558224
45	754000	540352
46	841472	635248
47	987072	722576
48	950288	662448
49	838256	611968
50	700976	508624
51	764320	573760
52	885040	700384
53	663552	521648
54	643600	448656
55	836640	669200
56	644960	463440
57	657648	468400
58	750048	548544
59	801104	566608
60	752800	599024
61	658368	481712
62	630336	468176
63	604240	400112
64	1307168	901504
66	1325232	852448
68	1276432	772816
70	1078096	664608
72	1098416	732240
74	1021648	702640
76	1138320	722336
78	1001568	608624
80	820464	555968
82	812288	542368
84	844032	533424
86	791584	509456
88	662416	406448
90	723600	444528
92	640352	425296
94	739248	518064
96	765888	567664
98	732992	535728
100	742752	541696
102	716928	540672
104	615312	462320
106	709888	539872
108	716672	544064
110	617456	459072
112	584384	410656
114	469584	299392
116	587328	431312
118	493248	353936
120	447392	334400
122	422080	317584
124	412784	331920
126	398464	326944
128	846752	748848
132	789776	610336
136	766480	679264
140	804160	674336
144	810608	628672
148	849856	548512
152	780736	568736
156	857120	608608
160	914608	654512
164	978544	668976
168	817760	604928
172	721408	526480
176	639824	472448
180	670112	510000
184	621200	476480
188	701936	546128
192	615168	494672
196	640832	541520
200	639840	546432
204	720096	614800
208	664128	567712
212	623776	548432
216	633120	573744
220	679872	578080
224	739696	636272
228	758368	653792
232	739248	664592
236	732896	663952
240	767648	695952
244	731232	660800
248	712320	650768
252	766528	698896
256	1367808	1240384
264	1205280	1114304
272	1409088	1310624
280	1734016	1646128
288	1945280	1877552
296	1738288	1682944
304	1233296	1163024
312	860448	794624
320	825680	751792
328	855248	767680
336	833648	764928
344	807776	756384
352	826896	771904
360	854704	799456
368	851392	787856
376	823616	758080
384	793776	736608
392	744272	700272
400	740608	703232
408	667904	625536
416	673008	628880
424	658608	594544
432	628096	561456
440	631056	547808
448	626800	553632
456	617328	546528
464	590080	511856
472	527248	454400
480	525488	460944
488	480368	432688
496	452064	414608
504	397088	363088
512	663392	593232
528	544928	469264
544	536832	450944
560	545648	454576
576	605232	504176
592	446560	352000
608	404624	316992
624	385008	281504
640	325568	231792
656	305152	217616
672	299312	229472
688	298864	244864
704	276848	230320
720	224768	182864
736	242992	192528
752	225104	174432
768	204224	152704
784	221696	173056
800	221904	177056
816	231216	188320
832	253600	214368
848	255472	211840
864	239536	198752
880	182688	148816
896	156160	130752
912	142800	118624
928	123296	101024
944	120368	97264
960	125280	99584
976	113744	88176
992	113552	92192
1008	100768	81040
1024	187232	151280
1056	187200	142784
1088	186736	149648
1120	172576	139600
1152	158976	124016
1184	152864	118160
1216	140016	109632
1248	136464	101216
1280	121488	87232
1312	116192	84960
1344	111904	81792
1376	106768	73360
1408	102256	71200
1440	114832	81376
1472	103632	77440
1504	100768	72448
1536	89024	61584
1568	78000	54848
1600	72272	53008
1632	66368	47088
1664	72928	46800
1696	70976	43904
1728	65808	43936
1760	61200	44272
1792	68432	43424
1824	62576	40064
1856	55840	35648
1888	60416	35248
1920	68336	35744
1952	65088	32048
1984	73248	30048
2016	57136	31824
2048	107664	68080
2112	105152	60848
2176	100208	55424
2240	112512	47200
2304	85552	54064
2368	87168	60752
2432	80240	45136
2496	94272	44960
2560	80720	41760
2624	54544	39248
2688	59280	35776
2752	66400	34384
2816	75280	39728
2880	63216	45808
2944	59872	50512
3008	41328	30816
3072	44416	33328
3136	36208	27280
3200	36768	26448
3264	34272	25168
3328	33136	24080
3392	32768	23856
3456	37216	28832
3520	36032	28880
3584	26192	19152
3648	26816	19376
3712	25312	18352
3776	25136	17632
3840	25136	17280
3904	23360	16576
3968	22432	16080
4032	20384	14512
4096	40384	29104
4224	36992	26992
4352	35344	25456
4480	32560	22736
4608	30432	21072
4736	28064	18720
4864	26976	18784
4992	26256	18944
5120	23792	16240
5248	22992	15296
5376	21120	14320
5504	19488	13120
5632	18544	12448
5760	17792	12224
5888	17088	10896
6016	16400	10368
6144	15296	9600
6272	14336	9024
6400	11744	7184
6528	11280	7584
6656	12352	8352
6784	11424	7552
6912	11056	6848
7040	11024	6832
7168	9568	5936
7296	9664	6320
7424	8624	5280
7552	8512	5024
7680	8128	5008
7808	7664	4336
7936	7984	4688
8064	7488	4160
8192	13424	8032
8448	14288	8304
8704	11824	6704
8960	10544	6224
9216	10736	6608
9472	9392	6128
9728	8864	5488
9984	9232	5984
10240	6544	3792
10496	7648	4592
10752	6768	3744
11008	5440	3216
11264	5888	3232
11520	5904	3136
11776	6160	3232
12032	4384	2064
12288	4512	2304
12544	4672	2192
12800	4112	1632
13056	4336	1936
13312	4192	1664
13568	4624	1920
13824	3584	1712
14080	3952	1904
14336	4496	2272
14592	4336	2288
14848	4368	2512
15104	4624	2240
15360	3632	1728
15616	4384	2352
15872	4720	2048
16128	4192	1792
16384	9920	4864
16896	10096	5728
17408	9888	6176
17920	9472	5824
18432	8560	4816
18944	8880	5824
19456	9056	6416
19968	10864	8144
20480	11120	8608
20992	7904	5632
21504	8656	5728
22016	5744	3104
22528	4848	2320
23040	4096	1984
23552	4576	2544
24064	4752	2336
24576	3920	1824
25088	5152	2832
25600	4032	2032
26112	4336	2096
26624	4080	2336
27136	4944	3136
27648	5168	3056
28160	5552	3392
28672	5904	3920
29184	4304	2192
29696	5696	4000
30208	4352	2272
30720	6016	4256
31232	6064	4096
31744	6272	4496
32256	8560	6640
32768	12448	8752
33792	11200	7728
34816	9552	6640
35840	12944	10192
36864	14048	11280
37888	12992	10512
38912	10400	7856
39936	7904	5520
40960	5920	3440
41984	4544	2448
43008	3888	1584
44032	3040	1264
45056	2864	1184
46080	2368	1072
47104	2480	992
48128	3296	1520
49152	2192	960
50176	2544	1072
51200	2288	944
52224	2352	864
53248	2080	704
54272	2016	784
55296	2032	1024
56320	2368	1152
57344	1792	928
58368	1856	912
59392	2032	1008
60416	1744	736
61440	1904	800
62464	1488	784
63488	1504	784
64512	1328	512
65536	3344	1776
67584	3088	1568
69632	3232	1408
71680	2224	800
73728	2576	1024
75776	2304	1040
77824	2800	1056
79872	2000	912
81920	1712	752
83968	2144	1168
86016	1760	736
88064	2064	1024
90112	1712	656
92160	1664	832
94208	1776	624
96256	1696	816
98304	1856	864
100352	1440	800
102400	1552	720
104448	1696	528
106496	1344	656
108544	1600	848
110592	1504	608
112640	1280	672
114688	992	528
116736	1072	640
118784	960	544
120832	1344	768
122880	1056	560
124928	1040	496
126976	896	432
129024	912	560
131072	2176	992
135168	2176	1232
139264	2608	912
143360	2848	992
147456	3376	1136
151552	2528	720
155648	2128	784
159744	1456	592
163840	1440	544
167936	1536	480
172032	1440	368
176128	1616	400
180224	1488	736
184320	1424	496
188416	1232	656
192512	800	544
196608	704	336
200704	624	320
204800	832	400
208896	1184	480
212992	720	240
217088	672	256
221184	656	112
225280	928	416
229376	1040	320
233472	1120	240
237568	800	256
241664	528	224
245760	688	272
249856	1088	256
253952	1568	288
258048	1568	432
262144	1776	624
270336	1600	608
278528	2304	560
286720	2272	656
294912	2560	400
303104	2768	544
311296	1328	496
319488	1456	352
327680	1456	400
335872	1952	496
344064	1744	432
352256	2064	304
360448	3248	384
368640	2352	400
376832	1440	320
385024	960	352
393216	448	192
401408	432	256
409600	480	352
417792	304	240
425984	480	368
434176	320	192
442368	192	96
450560	288	208
458752	256	96
466944	144	48
475136	352	176
483328	272	112
491520	352	144
499712	288	176
507904	144	128
516096	272	192
524288	288	160
540672	512	336
557056	528	256
573440	656	240
589824	1408	384
606208	4960	608
622592	6256	816
638976	7968	368
655360	3584	528
671744	2192	384
688128	896	208
704512	1056	352
720896	944	256
737280	688	224
753664	576	256
770048	464	96
786432	224	96
802816	272	80
819200	608	208
835584	768	256
851968	576	128
868352	480	176
884736	480	176
901120	432	144
917504	496	128
933888	208	96
950272	352	16
966656	240	144
983040	288	80
999424	352	112
1015808	208	64
1032192	432	128
1048576	352	80
1081344	256	80
1114112	176	64
1146880	544	112
1179648	496	144
1212416	768	160
1245184	368	48
1277952	608	96
1310720	384	80
1343488	176	64
1376256	208	96
1409024	128	16
1441792	352	160
1474560	64	0
1507328	112	48
1540096	112	32
1572864	176	48
1605632	176	48
1638400	64	32
1671168	240	64
1703936	112	64
1736704	144	32
1769472	80	0
1802240	32	0
1835008	224	96
1867776	128	32
1900544	160	32
1933312	80	64
1966080	240	80
1998848	80	0
2031616	176	64
2064384	48	32
2097152	32	32
2162688	80	16
2228224	176	80
2293760	128	64
2359296	48	0
2424832	192	80
2490368	16	16
2555904	64	16
2621440	112	48
2686976	288	32
2752512	96	32
2818048	112	32
2883584	128	64
2949120	128	0
3014656	16	16
3080192	48	32
3145728	32	16
3211264	128	48
3276800	96	16
3342336	16	0
3407872	16	0
3473408	16	0
3538944	64	32
3604480	16	16
3670016	0	0
3735552	32	16
3801088	48	32
3866624	80	16
3932160	32	0
3997696	16	16
4063232	192	0
4128768	144	96
4194304	64	16
4325376	32	0
4456448	48	16
4587520	16	16
4718592	96	16
4849664	176	16
4980736	32	16
5111808	64	16
5242880	96	64
5373952	64	48
5505024	32	32
5636096	32	16
5767168	224	32
5898240	144	16
6029312	48	32
6160384	0	0
6291456	128	64
6422528	80	32
6553600	16	0
6684672	0	0
6815744	0	0
6946816	144	48
7077888	0	0
7208960	32	16
7340032	48	32
7471104	16	0
7602176	208	80
7733248	16	0
7864320	0	0
7995392	16	0
8126464	0	0
8257536	0	0
8388608	16	0
8650752	0	0
8912896	64	32
9175040	96	0
9437184	32	32
9699328	0	0
9961472	0	0
10223616	0	0
10485760	0	0
10747904	0	0
11010048	0	0
11272192	16	0
11534336	64	32
11796480	16	0
12058624	32	0
12320768	0	0
12582912	0	0
12845056	32	16
13107200	16	16
13369344	48	32
13631488	0	0
13893632	32	0
14155776	0	0
14417920	0	0
14680064	0	0
14942208	48	0
15204352	0	0
15466496	0	0
15728640	0	0
15990784	0	0
16252928	16	16
16515072	0	0
16777216	0	0
17301504	0	0
17825792	0	0
18350080	0	0
18874368	0	0
19398656	0	0
19922944	0	0
20447232	0	0
20971520	0	0
21495808	0	0
22020096	0	0
22544384	0	0
23068672	0	0
23592960	16	0
24117248	0	0
24641536	16	0
25165824	16	16
25690112	0	0
26214400	0	0
26738688	0	0
27262976	0	0
27787264	0	0
28311552	0	0
28835840	0	0
29360128	16	16
29884416	0	0
30408704	0	0
30932992	0	0
31457280	0	0
31981568	0	0
32505856	0	0
33030144	0	0
33554432	0	0
34603008	0	0
35651584	0	0
36700160	0	0
37748736	0	0
38797312	0	0
39845888	0	0
40894464	0	0
41943040	0	0
42991616	0	0
44040192	0	0
45088768	0	0
46137344	0	0
47185920	0	0
48234496	0	0
49283072	0	0
50331648	0	0
51380224	0	0
52428800	0	0
53477376	0	0
54525952	16	16
55574528	0	0
56623104	0	0
57671680	0	0
58720256	16	16
59768832	0	0
60817408	0	0
61865984	0	0
62914560	0	0
63963136	0	0
65011712	0	0
66060288	32	32
67108864	0	0
69206016	0	0
71303168	16	16
73400320	16	16
75497472	0	0
77594624	0	0
79691776	0	0
81788928	0	0
83886080	0	0
85983232	0	0
88080384	0	0
90177536	0	0
92274688	0	0
94371840	0	0
96468992	0	0
98566144	16	16
100663296	0	0
102760448	0	0
104857600	0	0
106954752	0	0
109051904	16	16
111149056	0	0
113246208	0	0
115343360	0	0
117440512	16	16
119537664	0	0
121634816	0	0
123731968	0	0
125829120	0	0
127926272	0	0
130023424	0	0
132120576	0	0
134217728	0	0
138412032	0	0
142606336	0	0
146800640	0	0
150994944	0	0
155189248	0	0
159383552	0	0
163577856	0	0
167772160	0	0
171966464	0	0
176160768	0	0
180355072	0	0
184549376	0	0
188743680	0	0
192937984	0	0
197132288	0	0
201326592	0	0
205520896	0	0
209715200	0	0
213909504	0	0
218103808	0	0
222298112	0	0
226492416	0	0
230686720	0	0
234881024	0	0
239075328	0	0
243269632	0	0
247463936	0	0
251658240	0	0
255852544	0	0
260046848	0	0
264241152	0	0
268435456	0	0
276824064	0	0
285212672	0	0
293601280	0	0
301989888	0	0
310378496	0	0
318767104	0	0
327155712	0	0
335544320	0	0
343932928	0	0
352321536	0	0
360710144	0	0
369098752	0	0
377487360	0	0
385875968	0	0
394264576	0	0
402653184	0	0
411041792	0	0
419430400	0	0
427819008	0	0
436207616	0	0
444596224	0	0
452984832	0	0
461373440	0	0
469762048	0	0
478150656	0	0
486539264	0	0
494927872	0	0
503316480	0	0
511705088	0	0
520093696	0	0
528482304	0	0
536870912	0	0
553648128	0	0
570425344	0	0
587202560	0	0
603979776	0	0
620756992	0	0
637534208	0	0
654311424	0	0
671088640	0	0
687865856	0	0
704643072	0	0
721420288	0	0
738197504	0	0
754974720	0	0
771751936	0	0
788529152	0	0
805306368	0	0
822083584	0	0
838860800	0	0
855638016	0	0
872415232	0	0
889192448	0	0
905969664	0	0
922746880	0	0
939524096	0	0
956301312	0	0
973078528	0	0
989855744	0	0
1006632960	0	0
1023410176	0	0
1040187392	0	0
1056964608	0	0
1073741824	0	0
1107296256	0	0
1140850688	0	0
1174405120	0	0
1207959552	0	0
1241513984	0	0
1275068416	0	0
1308622848	0	0
1342177280	0	0
1375731712	0	0
1409286144	0	0
1442840576	0	0
1476395008	0	0
1509949440	0	0
1543503872	0	0
1577058304	0	0
1610612736	0	0
1644167168	0	0
1677721600	0	0
1711276032	0	0
1744830464	0	0
1778384896	0	0
1811939328	0	0
1845493760	0	0
1879048192	0	0
1912602624	0	0
1946157056	0	0
1979711488	0	0
2013265920	0	0
2046820352	0	0
2080374784	0	0
2113929216	0	0
2147483648	0	0
2214592512	0	0
2281701376	0	0
2348810240	0	0
2415919104	0	0
2483027968	0	0
2550136832	0	0
2617245696	0	0
2684354560	0	0
2751463424	0	0
2818572288	0	0
2885681152	0	0
2952790016	0	0
3019898880	0	0
3087007744	0	0
3154116608	0	0
3221225472	0	0
3288334336	0	0
3355443200	0	0
3422552064	0	0
3489660928	0	0
3556769792	0	0
3623878656	0	0
3690987520	0	0
3758096384	0	0
3825205248	0	0
3892314112	0	0
3959422976	0	0
4026531840	0	0
4093640704	0	0
4160749568	0	0
4227858432	0	0
~~~~~~~~~~Reuse Distance Profiler output end~~~~~~~~~~

DRAM Statistics
 CHANNEL 0
 RQ ROW_BUFFER_HIT:         46  ROW_BUFFER_MISS:         49
 DBUS AVG_CONGESTED_CYCLE:    3.83556
 WQ ROW_BUFFER_HIT:          0  ROW_BUFFER_MISS:          0  FULL:          0


CPU 0 Branch Prediction Accuracy: 79.1637% MPKI: 31.9842 Average ROB Occupancy at Mispredict: 15.5707
Branch type MPKI
BRANCH_DIRECT_JUMP: 2e-06
BRANCH_INDIRECT: 0
BRANCH_CONDITIONAL: 31.9842
BRANCH_DIRECT_CALL: 6.66667e-07
BRANCH_INDIRECT_CALL: 0
BRANCH_RETURN: 6.66667e-07

