
*** ChampSim Multicore Out-of-Order Simulator ***

Warmup Instructions: 500000000
Simulation Instructions: 1500000000
Number of CPUs: 1
Off-chip DRAM Size: 4 GiB Channels: 1 Width: 64-bit Data Rate: 3200 MT/s

VirtualMemory physical capacity: 8588881920 num_ppages: 2096895
VirtualMemory page size: 4096 log2_page_size: 12

CPU 0 runs traces/648.exchange2_s-1227B.champsimtrace.xz
CPU 0 Bimodal branch predictor
Basic BTB sets: 1024 ways: 8 indirect buffer size: 4096 RAS size: 64
Initializing LRU.
Initializing LRU.
Initializing LRU.
Initializing LRU.
Initializing rdLRU.
Initializing LRU.
Initializing LRU.
Heartbeat CPU 0 instructions: 10000002 cycles: 2504610 heartbeat IPC: 3.99264 cumulative IPC: 3.99264 (Simulation time: 0 hr 0 min 49 sec) 
Heartbeat CPU 0 instructions: 20000000 cycles: 5005938 heartbeat IPC: 3.99788 cumulative IPC: 3.99526 (Simulation time: 0 hr 1 min 40 sec) 
Heartbeat CPU 0 instructions: 30000000 cycles: 7506123 heartbeat IPC: 3.9997 cumulative IPC: 3.99674 (Simulation time: 0 hr 2 min 35 sec) 
Heartbeat CPU 0 instructions: 40000002 cycles: 10006603 heartbeat IPC: 3.99923 cumulative IPC: 3.99736 (Simulation time: 0 hr 3 min 26 sec) 
Heartbeat CPU 0 instructions: 50000000 cycles: 12506788 heartbeat IPC: 3.9997 cumulative IPC: 3.99783 (Simulation time: 0 hr 4 min 13 sec) 
Heartbeat CPU 0 instructions: 60000002 cycles: 15007785 heartbeat IPC: 3.99841 cumulative IPC: 3.99793 (Simulation time: 0 hr 4 min 58 sec) 
Heartbeat CPU 0 instructions: 70000002 cycles: 17507785 heartbeat IPC: 4 cumulative IPC: 3.99822 (Simulation time: 0 hr 5 min 49 sec) 
Heartbeat CPU 0 instructions: 80000002 cycles: 20007785 heartbeat IPC: 4 cumulative IPC: 3.99844 (Simulation time: 0 hr 6 min 46 sec) 
Heartbeat CPU 0 instructions: 90000002 cycles: 22507785 heartbeat IPC: 4 cumulative IPC: 3.99862 (Simulation time: 0 hr 7 min 33 sec) 
Heartbeat CPU 0 instructions: 100000002 cycles: 25007785 heartbeat IPC: 4 cumulative IPC: 3.99875 (Simulation time: 0 hr 8 min 18 sec) 
Heartbeat CPU 0 instructions: 110000002 cycles: 27507785 heartbeat IPC: 4 cumulative IPC: 3.99887 (Simulation time: 0 hr 9 min 9 sec) 
Heartbeat CPU 0 instructions: 120000002 cycles: 30007785 heartbeat IPC: 4 cumulative IPC: 3.99896 (Simulation time: 0 hr 10 min 5 sec) 
Heartbeat CPU 0 instructions: 130000002 cycles: 32507785 heartbeat IPC: 4 cumulative IPC: 3.99904 (Simulation time: 0 hr 10 min 58 sec) 
Heartbeat CPU 0 instructions: 140000002 cycles: 35007785 heartbeat IPC: 4 cumulative IPC: 3.99911 (Simulation time: 0 hr 11 min 42 sec) 
Heartbeat CPU 0 instructions: 150000003 cycles: 37508269 heartbeat IPC: 3.99923 cumulative IPC: 3.99912 (Simulation time: 0 hr 12 min 33 sec) 
Heartbeat CPU 0 instructions: 160000000 cycles: 40009597 heartbeat IPC: 3.99788 cumulative IPC: 3.99904 (Simulation time: 0 hr 13 min 24 sec) 
Heartbeat CPU 0 instructions: 170000000 cycles: 42510446 heartbeat IPC: 3.99864 cumulative IPC: 3.99902 (Simulation time: 0 hr 14 min 17 sec) 
Heartbeat CPU 0 instructions: 180000000 cycles: 45010446 heartbeat IPC: 4 cumulative IPC: 3.99907 (Simulation time: 0 hr 15 min 6 sec) 
Heartbeat CPU 0 instructions: 190000000 cycles: 47510446 heartbeat IPC: 4 cumulative IPC: 3.99912 (Simulation time: 0 hr 15 min 54 sec) 
Heartbeat CPU 0 instructions: 200000000 cycles: 50010446 heartbeat IPC: 4 cumulative IPC: 3.99916 (Simulation time: 0 hr 16 min 47 sec) 
Heartbeat CPU 0 instructions: 210000000 cycles: 52510446 heartbeat IPC: 4 cumulative IPC: 3.9992 (Simulation time: 0 hr 17 min 36 sec) 
Heartbeat CPU 0 instructions: 220000001 cycles: 55011924 heartbeat IPC: 3.99764 cumulative IPC: 3.99913 (Simulation time: 0 hr 18 min 23 sec) 
Heartbeat CPU 0 instructions: 230000002 cycles: 57513439 heartbeat IPC: 3.99758 cumulative IPC: 3.99907 (Simulation time: 0 hr 19 min 10 sec) 
Heartbeat CPU 0 instructions: 240000001 cycles: 60014103 heartbeat IPC: 3.99894 cumulative IPC: 3.99906 (Simulation time: 0 hr 20 min 3 sec) 
Heartbeat CPU 0 instructions: 250000003 cycles: 62514767 heartbeat IPC: 3.99894 cumulative IPC: 3.99906 (Simulation time: 0 hr 20 min 56 sec) 
Heartbeat CPU 0 instructions: 260000002 cycles: 65015430 heartbeat IPC: 3.99894 cumulative IPC: 3.99905 (Simulation time: 0 hr 21 min 50 sec) 
Heartbeat CPU 0 instructions: 270000002 cycles: 67515430 heartbeat IPC: 4 cumulative IPC: 3.99909 (Simulation time: 0 hr 22 min 42 sec) 
Heartbeat CPU 0 instructions: 280000003 cycles: 70018777 heartbeat IPC: 3.99465 cumulative IPC: 3.99893 (Simulation time: 0 hr 23 min 31 sec) 
Heartbeat CPU 0 instructions: 290000002 cycles: 72519440 heartbeat IPC: 3.99894 cumulative IPC: 3.99893 (Simulation time: 0 hr 24 min 26 sec) 
Heartbeat CPU 0 instructions: 300000000 cycles: 75020105 heartbeat IPC: 3.99894 cumulative IPC: 3.99893 (Simulation time: 0 hr 25 min 22 sec) 
Heartbeat CPU 0 instructions: 310000003 cycles: 77520770 heartbeat IPC: 3.99894 cumulative IPC: 3.99893 (Simulation time: 0 hr 26 min 19 sec) 
Heartbeat CPU 0 instructions: 320000003 cycles: 80020770 heartbeat IPC: 4 cumulative IPC: 3.99896 (Simulation time: 0 hr 27 min 17 sec) 
Heartbeat CPU 0 instructions: 330000001 cycles: 82521101 heartbeat IPC: 3.99947 cumulative IPC: 3.99898 (Simulation time: 0 hr 28 min 9 sec) 
Heartbeat CPU 0 instructions: 340000003 cycles: 85027791 heartbeat IPC: 3.98933 cumulative IPC: 3.99869 (Simulation time: 0 hr 29 min 6 sec) 
Heartbeat CPU 0 instructions: 350000002 cycles: 87528786 heartbeat IPC: 3.99841 cumulative IPC: 3.99868 (Simulation time: 0 hr 29 min 52 sec) 
Heartbeat CPU 0 instructions: 360000002 cycles: 90028786 heartbeat IPC: 4 cumulative IPC: 3.99872 (Simulation time: 0 hr 30 min 45 sec) 
Heartbeat CPU 0 instructions: 370000000 cycles: 92529596 heartbeat IPC: 3.9987 cumulative IPC: 3.99872 (Simulation time: 0 hr 31 min 27 sec) 
Heartbeat CPU 0 instructions: 380000003 cycles: 95030261 heartbeat IPC: 3.99894 cumulative IPC: 3.99873 (Simulation time: 0 hr 32 min 7 sec) 
Heartbeat CPU 0 instructions: 390000002 cycles: 97530446 heartbeat IPC: 3.9997 cumulative IPC: 3.99875 (Simulation time: 0 hr 32 min 53 sec) 
Heartbeat CPU 0 instructions: 400000002 cycles: 100031111 heartbeat IPC: 3.99894 cumulative IPC: 3.99876 (Simulation time: 0 hr 33 min 48 sec) 
Heartbeat CPU 0 instructions: 410000000 cycles: 102531776 heartbeat IPC: 3.99894 cumulative IPC: 3.99876 (Simulation time: 0 hr 34 min 37 sec) 
Heartbeat CPU 0 instructions: 420000003 cycles: 105032774 heartbeat IPC: 3.9984 cumulative IPC: 3.99875 (Simulation time: 0 hr 35 min 32 sec) 
Heartbeat CPU 0 instructions: 430000001 cycles: 107533771 heartbeat IPC: 3.9984 cumulative IPC: 3.99874 (Simulation time: 0 hr 36 min 23 sec) 
Heartbeat CPU 0 instructions: 440000002 cycles: 110034984 heartbeat IPC: 3.99806 cumulative IPC: 3.99873 (Simulation time: 0 hr 37 min 10 sec) 
Heartbeat CPU 0 instructions: 450000000 cycles: 112536312 heartbeat IPC: 3.99788 cumulative IPC: 3.99871 (Simulation time: 0 hr 37 min 55 sec) 
Heartbeat CPU 0 instructions: 460000001 cycles: 115036828 heartbeat IPC: 3.99918 cumulative IPC: 3.99872 (Simulation time: 0 hr 38 min 43 sec) 
Heartbeat CPU 0 instructions: 470000003 cycles: 117537640 heartbeat IPC: 3.9987 cumulative IPC: 3.99872 (Simulation time: 0 hr 39 min 29 sec) 
Heartbeat CPU 0 instructions: 480000000 cycles: 120038842 heartbeat IPC: 3.99808 cumulative IPC: 3.99871 (Simulation time: 0 hr 40 min 18 sec) 
Heartbeat CPU 0 instructions: 490000003 cycles: 122539175 heartbeat IPC: 3.99947 cumulative IPC: 3.99872 (Simulation time: 0 hr 41 min 12 sec) 
Heartbeat CPU 0 instructions: 500000000 cycles: 125042038 heartbeat IPC: 3.99542 cumulative IPC: 3.99866 (Simulation time: 0 hr 42 min 5 sec) 

Warmup complete CPU 0 instructions: 500000004 cycles: 125042039 (Simulation time: 0 hr 42 min 5 sec) 

Heartbeat CPU 0 instructions: 510000001 cycles: 133537059 heartbeat IPC: 1.17716 cumulative IPC: 1.17716 (Simulation time: 0 hr 42 min 44 sec) 
Heartbeat CPU 0 instructions: 520000000 cycles: 142426096 heartbeat IPC: 1.12498 cumulative IPC: 1.15048 (Simulation time: 0 hr 43 min 28 sec) 
Heartbeat CPU 0 instructions: 530000004 cycles: 151280578 heartbeat IPC: 1.12937 cumulative IPC: 1.14336 (Simulation time: 0 hr 44 min 14 sec) 
Heartbeat CPU 0 instructions: 540000001 cycles: 160461098 heartbeat IPC: 1.08926 cumulative IPC: 1.12934 (Simulation time: 0 hr 44 min 59 sec) 
Heartbeat CPU 0 instructions: 550000000 cycles: 168933129 heartbeat IPC: 1.18035 cumulative IPC: 1.13918 (Simulation time: 0 hr 45 min 42 sec) 
Heartbeat CPU 0 instructions: 560000001 cycles: 177417979 heartbeat IPC: 1.17857 cumulative IPC: 1.14556 (Simulation time: 0 hr 46 min 18 sec) 
Heartbeat CPU 0 instructions: 570000002 cycles: 185893787 heartbeat IPC: 1.17983 cumulative IPC: 1.15034 (Simulation time: 0 hr 46 min 59 sec) 
Heartbeat CPU 0 instructions: 580000001 cycles: 194352130 heartbeat IPC: 1.18226 cumulative IPC: 1.15423 (Simulation time: 0 hr 47 min 40 sec) 
Heartbeat CPU 0 instructions: 590000001 cycles: 202507589 heartbeat IPC: 1.22617 cumulative IPC: 1.16181 (Simulation time: 0 hr 48 min 27 sec) 
Heartbeat CPU 0 instructions: 600000003 cycles: 211743468 heartbeat IPC: 1.08273 cumulative IPC: 1.15338 (Simulation time: 0 hr 49 min 11 sec) 
Heartbeat CPU 0 instructions: 610000003 cycles: 220573357 heartbeat IPC: 1.13252 cumulative IPC: 1.15145 (Simulation time: 0 hr 49 min 59 sec) 
Heartbeat CPU 0 instructions: 620000001 cycles: 228228458 heartbeat IPC: 1.30632 cumulative IPC: 1.16294 (Simulation time: 0 hr 50 min 41 sec) 
Heartbeat CPU 0 instructions: 630000000 cycles: 236598310 heartbeat IPC: 1.19476 cumulative IPC: 1.16533 (Simulation time: 0 hr 51 min 27 sec) 
Heartbeat CPU 0 instructions: 640000000 cycles: 244881410 heartbeat IPC: 1.20728 cumulative IPC: 1.16823 (Simulation time: 0 hr 52 min 7 sec) 
Heartbeat CPU 0 instructions: 650000002 cycles: 253124453 heartbeat IPC: 1.21314 cumulative IPC: 1.17112 (Simulation time: 0 hr 52 min 50 sec) 
Heartbeat CPU 0 instructions: 660000001 cycles: 261475162 heartbeat IPC: 1.1975 cumulative IPC: 1.17274 (Simulation time: 0 hr 53 min 34 sec) 
Heartbeat CPU 0 instructions: 670000000 cycles: 269391213 heartbeat IPC: 1.26326 cumulative IPC: 1.1777 (Simulation time: 0 hr 54 min 20 sec) 
Heartbeat CPU 0 instructions: 680000001 cycles: 277592534 heartbeat IPC: 1.21932 cumulative IPC: 1.17994 (Simulation time: 0 hr 55 min 1 sec) 
Heartbeat CPU 0 instructions: 690000000 cycles: 286561415 heartbeat IPC: 1.11497 cumulative IPC: 1.17633 (Simulation time: 0 hr 55 min 43 sec) 
Heartbeat CPU 0 instructions: 700000003 cycles: 295517707 heartbeat IPC: 1.11653 cumulative IPC: 1.17319 (Simulation time: 0 hr 56 min 29 sec) 
Heartbeat CPU 0 instructions: 710000000 cycles: 304413837 heartbeat IPC: 1.12408 cumulative IPC: 1.17075 (Simulation time: 0 hr 57 min 15 sec) 
Heartbeat CPU 0 instructions: 720000002 cycles: 313437125 heartbeat IPC: 1.10824 cumulative IPC: 1.16776 (Simulation time: 0 hr 58 min 2 sec) 
Heartbeat CPU 0 instructions: 730000004 cycles: 322369806 heartbeat IPC: 1.11948 cumulative IPC: 1.16557 (Simulation time: 0 hr 58 min 52 sec) 
Heartbeat CPU 0 instructions: 740000002 cycles: 331389512 heartbeat IPC: 1.10868 cumulative IPC: 1.16309 (Simulation time: 0 hr 59 min 42 sec) 
Heartbeat CPU 0 instructions: 750000004 cycles: 340324110 heartbeat IPC: 1.11924 cumulative IPC: 1.16127 (Simulation time: 1 hr 0 min 26 sec) 
Heartbeat CPU 0 instructions: 760000000 cycles: 349279217 heartbeat IPC: 1.11668 cumulative IPC: 1.15949 (Simulation time: 1 hr 1 min 10 sec) 
Heartbeat CPU 0 instructions: 770000000 cycles: 358207860 heartbeat IPC: 1.11999 cumulative IPC: 1.15797 (Simulation time: 1 hr 1 min 57 sec) 
Heartbeat CPU 0 instructions: 780000000 cycles: 367143735 heartbeat IPC: 1.11908 cumulative IPC: 1.15654 (Simulation time: 1 hr 2 min 39 sec) 
Heartbeat CPU 0 instructions: 790000003 cycles: 376075371 heartbeat IPC: 1.11962 cumulative IPC: 1.15523 (Simulation time: 1 hr 3 min 20 sec) 
Heartbeat CPU 0 instructions: 800000002 cycles: 385046572 heartbeat IPC: 1.11468 cumulative IPC: 1.15383 (Simulation time: 1 hr 4 min 9 sec) 
Heartbeat CPU 0 instructions: 810000000 cycles: 393952986 heartbeat IPC: 1.12279 cumulative IPC: 1.1528 (Simulation time: 1 hr 4 min 57 sec) 
Heartbeat CPU 0 instructions: 820000000 cycles: 402889816 heartbeat IPC: 1.11897 cumulative IPC: 1.15171 (Simulation time: 1 hr 5 min 46 sec) 
Heartbeat CPU 0 instructions: 830000000 cycles: 411826646 heartbeat IPC: 1.11897 cumulative IPC: 1.15069 (Simulation time: 1 hr 6 min 33 sec) 
Heartbeat CPU 0 instructions: 840000000 cycles: 420773731 heartbeat IPC: 1.11768 cumulative IPC: 1.14969 (Simulation time: 1 hr 7 min 21 sec) 
Heartbeat CPU 0 instructions: 850000003 cycles: 429736984 heartbeat IPC: 1.11567 cumulative IPC: 1.14869 (Simulation time: 1 hr 8 min 10 sec) 
Heartbeat CPU 0 instructions: 860000000 cycles: 438669202 heartbeat IPC: 1.11954 cumulative IPC: 1.14786 (Simulation time: 1 hr 8 min 46 sec) 
Heartbeat CPU 0 instructions: 870000003 cycles: 447617143 heartbeat IPC: 1.11758 cumulative IPC: 1.14702 (Simulation time: 1 hr 9 min 35 sec) 
Heartbeat CPU 0 instructions: 880000001 cycles: 456320018 heartbeat IPC: 1.14905 cumulative IPC: 1.14707 (Simulation time: 1 hr 10 min 19 sec) 
Heartbeat CPU 0 instructions: 890000002 cycles: 464751204 heartbeat IPC: 1.18607 cumulative IPC: 1.14804 (Simulation time: 1 hr 11 min 0 sec) 
Heartbeat CPU 0 instructions: 900000000 cycles: 473672145 heartbeat IPC: 1.12096 cumulative IPC: 1.14735 (Simulation time: 1 hr 11 min 45 sec) 
Heartbeat CPU 0 instructions: 910000001 cycles: 482633717 heartbeat IPC: 1.11588 cumulative IPC: 1.14656 (Simulation time: 1 hr 12 min 28 sec) 
Heartbeat CPU 0 instructions: 920000000 cycles: 491540868 heartbeat IPC: 1.12269 cumulative IPC: 1.14598 (Simulation time: 1 hr 13 min 15 sec) 
Heartbeat CPU 0 instructions: 930000004 cycles: 500461963 heartbeat IPC: 1.12094 cumulative IPC: 1.14538 (Simulation time: 1 hr 13 min 57 sec) 
Heartbeat CPU 0 instructions: 940000004 cycles: 509439852 heartbeat IPC: 1.11385 cumulative IPC: 1.14465 (Simulation time: 1 hr 14 min 36 sec) 
Heartbeat CPU 0 instructions: 950000001 cycles: 518378188 heartbeat IPC: 1.11878 cumulative IPC: 1.14406 (Simulation time: 1 hr 15 min 17 sec) 
Heartbeat CPU 0 instructions: 960000000 cycles: 527370235 heartbeat IPC: 1.11209 cumulative IPC: 1.14335 (Simulation time: 1 hr 16 min 6 sec) 
Heartbeat CPU 0 instructions: 970000003 cycles: 536277432 heartbeat IPC: 1.12269 cumulative IPC: 1.1429 (Simulation time: 1 hr 16 min 54 sec) 
Heartbeat CPU 0 instructions: 980000004 cycles: 545207086 heartbeat IPC: 1.11986 cumulative IPC: 1.14241 (Simulation time: 1 hr 17 min 36 sec) 
Heartbeat CPU 0 instructions: 990000001 cycles: 554121800 heartbeat IPC: 1.12174 cumulative IPC: 1.14198 (Simulation time: 1 hr 18 min 19 sec) 
Heartbeat CPU 0 instructions: 1000000000 cycles: 563103363 heartbeat IPC: 1.11339 cumulative IPC: 1.14139 (Simulation time: 1 hr 18 min 59 sec) 
Heartbeat CPU 0 instructions: 1010000000 cycles: 572074919 heartbeat IPC: 1.11463 cumulative IPC: 1.14086 (Simulation time: 1 hr 19 min 44 sec) 
Heartbeat CPU 0 instructions: 1020000004 cycles: 581000903 heartbeat IPC: 1.12033 cumulative IPC: 1.14045 (Simulation time: 1 hr 20 min 29 sec) 
Heartbeat CPU 0 instructions: 1030000001 cycles: 590001029 heartbeat IPC: 1.1111 cumulative IPC: 1.13989 (Simulation time: 1 hr 21 min 14 sec) 
Heartbeat CPU 0 instructions: 1040000002 cycles: 598949466 heartbeat IPC: 1.11751 cumulative IPC: 1.13946 (Simulation time: 1 hr 21 min 58 sec) 
Heartbeat CPU 0 instructions: 1050000002 cycles: 607900872 heartbeat IPC: 1.11714 cumulative IPC: 1.13905 (Simulation time: 1 hr 22 min 46 sec) 
Heartbeat CPU 0 instructions: 1060000000 cycles: 616824804 heartbeat IPC: 1.12058 cumulative IPC: 1.13871 (Simulation time: 1 hr 23 min 34 sec) 
Heartbeat CPU 0 instructions: 1070000004 cycles: 625764228 heartbeat IPC: 1.11864 cumulative IPC: 1.13836 (Simulation time: 1 hr 24 min 19 sec) 
Heartbeat CPU 0 instructions: 1080000001 cycles: 634671492 heartbeat IPC: 1.12268 cumulative IPC: 1.13808 (Simulation time: 1 hr 25 min 6 sec) 
Heartbeat CPU 0 instructions: 1090000001 cycles: 643614177 heartbeat IPC: 1.11823 cumulative IPC: 1.13774 (Simulation time: 1 hr 25 min 54 sec) 
Heartbeat CPU 0 instructions: 1100000000 cycles: 652600376 heartbeat IPC: 1.11282 cumulative IPC: 1.13731 (Simulation time: 1 hr 26 min 43 sec) 
Heartbeat CPU 0 instructions: 1110000002 cycles: 659985149 heartbeat IPC: 1.35414 cumulative IPC: 1.14031 (Simulation time: 1 hr 27 min 30 sec) 
Heartbeat CPU 0 instructions: 1120000001 cycles: 667798629 heartbeat IPC: 1.27984 cumulative IPC: 1.14232 (Simulation time: 1 hr 28 min 19 sec) 
Heartbeat CPU 0 instructions: 1130000001 cycles: 676683088 heartbeat IPC: 1.12556 cumulative IPC: 1.14205 (Simulation time: 1 hr 29 min 6 sec) 
Heartbeat CPU 0 instructions: 1140000000 cycles: 685567098 heartbeat IPC: 1.12562 cumulative IPC: 1.14179 (Simulation time: 1 hr 29 min 56 sec) 
Heartbeat CPU 0 instructions: 1150000000 cycles: 694488887 heartbeat IPC: 1.12085 cumulative IPC: 1.14146 (Simulation time: 1 hr 30 min 47 sec) 
Heartbeat CPU 0 instructions: 1160000000 cycles: 703549818 heartbeat IPC: 1.10364 cumulative IPC: 1.14087 (Simulation time: 1 hr 31 min 34 sec) 
Heartbeat CPU 0 instructions: 1170000000 cycles: 712456334 heartbeat IPC: 1.12277 cumulative IPC: 1.14059 (Simulation time: 1 hr 32 min 17 sec) 
Heartbeat CPU 0 instructions: 1180000000 cycles: 721353490 heartbeat IPC: 1.12395 cumulative IPC: 1.14034 (Simulation time: 1 hr 33 min 0 sec) 
Heartbeat CPU 0 instructions: 1190000000 cycles: 729458367 heartbeat IPC: 1.23382 cumulative IPC: 1.1416 (Simulation time: 1 hr 33 min 42 sec) 
Heartbeat CPU 0 instructions: 1200000001 cycles: 737211500 heartbeat IPC: 1.2898 cumulative IPC: 1.14347 (Simulation time: 1 hr 34 min 30 sec) 
Heartbeat CPU 0 instructions: 1210000000 cycles: 745228997 heartbeat IPC: 1.24727 cumulative IPC: 1.14482 (Simulation time: 1 hr 35 min 5 sec) 
Heartbeat CPU 0 instructions: 1220000002 cycles: 753120261 heartbeat IPC: 1.26722 cumulative IPC: 1.14635 (Simulation time: 1 hr 35 min 51 sec) 
Heartbeat CPU 0 instructions: 1230000001 cycles: 762140163 heartbeat IPC: 1.10866 cumulative IPC: 1.14582 (Simulation time: 1 hr 36 min 42 sec) 
Heartbeat CPU 0 instructions: 1240000003 cycles: 771192665 heartbeat IPC: 1.10467 cumulative IPC: 1.14524 (Simulation time: 1 hr 37 min 33 sec) 
Heartbeat CPU 0 instructions: 1250000000 cycles: 780184194 heartbeat IPC: 1.11216 cumulative IPC: 1.14479 (Simulation time: 1 hr 38 min 19 sec) 
Heartbeat CPU 0 instructions: 1260000001 cycles: 789143121 heartbeat IPC: 1.11621 cumulative IPC: 1.1444 (Simulation time: 1 hr 38 min 57 sec) 
Heartbeat CPU 0 instructions: 1270000002 cycles: 798122063 heartbeat IPC: 1.11372 cumulative IPC: 1.14399 (Simulation time: 1 hr 39 min 44 sec) 
Heartbeat CPU 0 instructions: 1280000001 cycles: 807137421 heartbeat IPC: 1.10922 cumulative IPC: 1.14354 (Simulation time: 1 hr 40 min 34 sec) 
Heartbeat CPU 0 instructions: 1290000004 cycles: 816134271 heartbeat IPC: 1.1115 cumulative IPC: 1.14312 (Simulation time: 1 hr 41 min 25 sec) 
Heartbeat CPU 0 instructions: 1300000000 cycles: 825136368 heartbeat IPC: 1.11085 cumulative IPC: 1.1427 (Simulation time: 1 hr 42 min 15 sec) 
Heartbeat CPU 0 instructions: 1310000000 cycles: 834062386 heartbeat IPC: 1.12032 cumulative IPC: 1.14242 (Simulation time: 1 hr 42 min 59 sec) 
Heartbeat CPU 0 instructions: 1320000004 cycles: 843018981 heartbeat IPC: 1.1165 cumulative IPC: 1.1421 (Simulation time: 1 hr 43 min 35 sec) 
Heartbeat CPU 0 instructions: 1330000000 cycles: 851862906 heartbeat IPC: 1.13072 cumulative IPC: 1.14196 (Simulation time: 1 hr 44 min 4 sec) 
Heartbeat CPU 0 instructions: 1340000000 cycles: 860774285 heartbeat IPC: 1.12216 cumulative IPC: 1.14172 (Simulation time: 1 hr 44 min 35 sec) 
Heartbeat CPU 0 instructions: 1350000001 cycles: 869727829 heartbeat IPC: 1.11688 cumulative IPC: 1.14142 (Simulation time: 1 hr 45 min 22 sec) 
Heartbeat CPU 0 instructions: 1360000004 cycles: 878617005 heartbeat IPC: 1.12496 cumulative IPC: 1.14123 (Simulation time: 1 hr 46 min 9 sec) 
Heartbeat CPU 0 instructions: 1370000000 cycles: 887481948 heartbeat IPC: 1.12804 cumulative IPC: 1.14107 (Simulation time: 1 hr 46 min 56 sec) 
Heartbeat CPU 0 instructions: 1380000002 cycles: 896437115 heartbeat IPC: 1.11667 cumulative IPC: 1.14079 (Simulation time: 1 hr 47 min 38 sec) 
Heartbeat CPU 0 instructions: 1390000002 cycles: 905319412 heartbeat IPC: 1.12583 cumulative IPC: 1.14062 (Simulation time: 1 hr 48 min 28 sec) 
Heartbeat CPU 0 instructions: 1400000001 cycles: 914227264 heartbeat IPC: 1.1226 cumulative IPC: 1.14042 (Simulation time: 1 hr 49 min 6 sec) 
Heartbeat CPU 0 instructions: 1410000000 cycles: 923201557 heartbeat IPC: 1.11429 cumulative IPC: 1.14012 (Simulation time: 1 hr 49 min 44 sec) 
Heartbeat CPU 0 instructions: 1420000003 cycles: 932135147 heartbeat IPC: 1.11937 cumulative IPC: 1.13989 (Simulation time: 1 hr 50 min 34 sec) 
Heartbeat CPU 0 instructions: 1430000002 cycles: 940999934 heartbeat IPC: 1.12806 cumulative IPC: 1.13976 (Simulation time: 1 hr 51 min 18 sec) 
Heartbeat CPU 0 instructions: 1440000001 cycles: 949755016 heartbeat IPC: 1.14219 cumulative IPC: 1.13979 (Simulation time: 1 hr 52 min 6 sec) 
Heartbeat CPU 0 instructions: 1450000004 cycles: 958513288 heartbeat IPC: 1.14178 cumulative IPC: 1.13981 (Simulation time: 1 hr 52 min 42 sec) 
Heartbeat CPU 0 instructions: 1460000003 cycles: 967326827 heartbeat IPC: 1.13462 cumulative IPC: 1.13976 (Simulation time: 1 hr 53 min 16 sec) 
Heartbeat CPU 0 instructions: 1470000003 cycles: 976136454 heartbeat IPC: 1.13512 cumulative IPC: 1.13971 (Simulation time: 1 hr 53 min 57 sec) 
Heartbeat CPU 0 instructions: 1480000001 cycles: 984883987 heartbeat IPC: 1.14318 cumulative IPC: 1.13974 (Simulation time: 1 hr 54 min 42 sec) 
Heartbeat CPU 0 instructions: 1490000002 cycles: 993882402 heartbeat IPC: 1.11131 cumulative IPC: 1.13945 (Simulation time: 1 hr 55 min 31 sec) 
Heartbeat CPU 0 instructions: 1500000000 cycles: 1002933592 heartbeat IPC: 1.10483 cumulative IPC: 1.13909 (Simulation time: 1 hr 56 min 21 sec) 
Heartbeat CPU 0 instructions: 1510000004 cycles: 1011987553 heartbeat IPC: 1.10449 cumulative IPC: 1.13874 (Simulation time: 1 hr 57 min 11 sec) 
Heartbeat CPU 0 instructions: 1520000004 cycles: 1020973107 heartbeat IPC: 1.1129 cumulative IPC: 1.13848 (Simulation time: 1 hr 57 min 53 sec) 
Heartbeat CPU 0 instructions: 1530000004 cycles: 1029951081 heartbeat IPC: 1.11384 cumulative IPC: 1.13824 (Simulation time: 1 hr 58 min 33 sec) 
Heartbeat CPU 0 instructions: 1540000000 cycles: 1038858403 heartbeat IPC: 1.12267 cumulative IPC: 1.13808 (Simulation time: 1 hr 59 min 19 sec) 
Heartbeat CPU 0 instructions: 1550000002 cycles: 1047795134 heartbeat IPC: 1.11898 cumulative IPC: 1.1379 (Simulation time: 2 hr 0 min 6 sec) 
Heartbeat CPU 0 instructions: 1560000000 cycles: 1056724972 heartbeat IPC: 1.11984 cumulative IPC: 1.13773 (Simulation time: 2 hr 0 min 43 sec) 
Heartbeat CPU 0 instructions: 1570000000 cycles: 1065365805 heartbeat IPC: 1.1573 cumulative IPC: 1.13791 (Simulation time: 2 hr 1 min 14 sec) 
Heartbeat CPU 0 instructions: 1580000001 cycles: 1074264160 heartbeat IPC: 1.1238 cumulative IPC: 1.13777 (Simulation time: 2 hr 2 min 1 sec) 
Heartbeat CPU 0 instructions: 1590000000 cycles: 1083136418 heartbeat IPC: 1.12711 cumulative IPC: 1.13767 (Simulation time: 2 hr 2 min 50 sec) 
Heartbeat CPU 0 instructions: 1600000002 cycles: 1092005920 heartbeat IPC: 1.12746 cumulative IPC: 1.13758 (Simulation time: 2 hr 3 min 36 sec) 
Heartbeat CPU 0 instructions: 1610000000 cycles: 1100813808 heartbeat IPC: 1.13535 cumulative IPC: 1.13756 (Simulation time: 2 hr 4 min 19 sec) 
Heartbeat CPU 0 instructions: 1620000003 cycles: 1109721990 heartbeat IPC: 1.12256 cumulative IPC: 1.13743 (Simulation time: 2 hr 4 min 57 sec) 
Heartbeat CPU 0 instructions: 1630000001 cycles: 1118539702 heartbeat IPC: 1.13408 cumulative IPC: 1.1374 (Simulation time: 2 hr 5 min 35 sec) 
Heartbeat CPU 0 instructions: 1640000003 cycles: 1127382259 heartbeat IPC: 1.13089 cumulative IPC: 1.13734 (Simulation time: 2 hr 6 min 20 sec) 
Heartbeat CPU 0 instructions: 1650000004 cycles: 1136159738 heartbeat IPC: 1.13928 cumulative IPC: 1.13736 (Simulation time: 2 hr 7 min 1 sec) 
Heartbeat CPU 0 instructions: 1660000003 cycles: 1144971225 heartbeat IPC: 1.13488 cumulative IPC: 1.13733 (Simulation time: 2 hr 7 min 48 sec) 
Heartbeat CPU 0 instructions: 1670000004 cycles: 1153795569 heartbeat IPC: 1.13323 cumulative IPC: 1.1373 (Simulation time: 2 hr 8 min 37 sec) 
Heartbeat CPU 0 instructions: 1680000003 cycles: 1162643628 heartbeat IPC: 1.13019 cumulative IPC: 1.13724 (Simulation time: 2 hr 9 min 26 sec) 
Heartbeat CPU 0 instructions: 1690000004 cycles: 1171391982 heartbeat IPC: 1.14307 cumulative IPC: 1.13729 (Simulation time: 2 hr 10 min 14 sec) 
Heartbeat CPU 0 instructions: 1700000004 cycles: 1180164092 heartbeat IPC: 1.13998 cumulative IPC: 1.13731 (Simulation time: 2 hr 10 min 51 sec) 
Heartbeat CPU 0 instructions: 1710000000 cycles: 1189026830 heartbeat IPC: 1.12832 cumulative IPC: 1.13723 (Simulation time: 2 hr 11 min 37 sec) 
Heartbeat CPU 0 instructions: 1720000000 cycles: 1197891780 heartbeat IPC: 1.12804 cumulative IPC: 1.13716 (Simulation time: 2 hr 12 min 25 sec) 
Heartbeat CPU 0 instructions: 1730000000 cycles: 1206766737 heartbeat IPC: 1.12677 cumulative IPC: 1.13707 (Simulation time: 2 hr 13 min 12 sec) 
Heartbeat CPU 0 instructions: 1740000003 cycles: 1215612499 heartbeat IPC: 1.13049 cumulative IPC: 1.13702 (Simulation time: 2 hr 13 min 58 sec) 
Heartbeat CPU 0 instructions: 1750000000 cycles: 1224517560 heartbeat IPC: 1.12296 cumulative IPC: 1.13691 (Simulation time: 2 hr 14 min 47 sec) 
Heartbeat CPU 0 instructions: 1760000001 cycles: 1233383281 heartbeat IPC: 1.12794 cumulative IPC: 1.13683 (Simulation time: 2 hr 15 min 32 sec) 
Heartbeat CPU 0 instructions: 1770000001 cycles: 1241422472 heartbeat IPC: 1.24391 cumulative IPC: 1.13761 (Simulation time: 2 hr 16 min 18 sec) 
Heartbeat CPU 0 instructions: 1780000002 cycles: 1249616055 heartbeat IPC: 1.22047 cumulative IPC: 1.13821 (Simulation time: 2 hr 17 min 5 sec) 
Heartbeat CPU 0 instructions: 1790000003 cycles: 1258224137 heartbeat IPC: 1.1617 cumulative IPC: 1.13839 (Simulation time: 2 hr 17 min 52 sec) 
Heartbeat CPU 0 instructions: 1800000001 cycles: 1267032860 heartbeat IPC: 1.13524 cumulative IPC: 1.13836 (Simulation time: 2 hr 18 min 38 sec) 
Heartbeat CPU 0 instructions: 1810000002 cycles: 1276006706 heartbeat IPC: 1.11435 cumulative IPC: 1.13818 (Simulation time: 2 hr 19 min 23 sec) 
Heartbeat CPU 0 instructions: 1820000003 cycles: 1285057665 heartbeat IPC: 1.10486 cumulative IPC: 1.13792 (Simulation time: 2 hr 20 min 13 sec) 
Heartbeat CPU 0 instructions: 1830000000 cycles: 1294122040 heartbeat IPC: 1.10322 cumulative IPC: 1.13765 (Simulation time: 2 hr 21 min 2 sec) 
Heartbeat CPU 0 instructions: 1840000003 cycles: 1302987839 heartbeat IPC: 1.12793 cumulative IPC: 1.13757 (Simulation time: 2 hr 21 min 50 sec) 
Heartbeat CPU 0 instructions: 1850000003 cycles: 1311808584 heartbeat IPC: 1.13369 cumulative IPC: 1.13754 (Simulation time: 2 hr 22 min 37 sec) 
Heartbeat CPU 0 instructions: 1860000004 cycles: 1320564841 heartbeat IPC: 1.14204 cumulative IPC: 1.13758 (Simulation time: 2 hr 23 min 24 sec) 
Heartbeat CPU 0 instructions: 1870000002 cycles: 1329429878 heartbeat IPC: 1.12803 cumulative IPC: 1.13751 (Simulation time: 2 hr 24 min 6 sec) 
Heartbeat CPU 0 instructions: 1880000002 cycles: 1338321384 heartbeat IPC: 1.12467 cumulative IPC: 1.13741 (Simulation time: 2 hr 24 min 53 sec) 
Heartbeat CPU 0 instructions: 1890000002 cycles: 1347421531 heartbeat IPC: 1.09888 cumulative IPC: 1.13713 (Simulation time: 2 hr 25 min 43 sec) 
Heartbeat CPU 0 instructions: 1900000003 cycles: 1356314035 heartbeat IPC: 1.12454 cumulative IPC: 1.13704 (Simulation time: 2 hr 26 min 32 sec) 
Heartbeat CPU 0 instructions: 1910000003 cycles: 1365167699 heartbeat IPC: 1.12948 cumulative IPC: 1.13698 (Simulation time: 2 hr 27 min 16 sec) 
Heartbeat CPU 0 instructions: 1920000000 cycles: 1373996258 heartbeat IPC: 1.13269 cumulative IPC: 1.13695 (Simulation time: 2 hr 27 min 54 sec) 
Heartbeat CPU 0 instructions: 1930000003 cycles: 1382796456 heartbeat IPC: 1.13634 cumulative IPC: 1.13695 (Simulation time: 2 hr 28 min 29 sec) 
Heartbeat CPU 0 instructions: 1940000004 cycles: 1391632846 heartbeat IPC: 1.13168 cumulative IPC: 1.13691 (Simulation time: 2 hr 29 min 4 sec) 
Heartbeat CPU 0 instructions: 1950000002 cycles: 1400640285 heartbeat IPC: 1.11019 cumulative IPC: 1.13672 (Simulation time: 2 hr 29 min 36 sec) 
Heartbeat CPU 0 instructions: 1960000000 cycles: 1409688391 heartbeat IPC: 1.1052 cumulative IPC: 1.1365 (Simulation time: 2 hr 30 min 5 sec) 
Heartbeat CPU 0 instructions: 1970000000 cycles: 1418433872 heartbeat IPC: 1.14345 cumulative IPC: 1.13655 (Simulation time: 2 hr 30 min 36 sec) 
Heartbeat CPU 0 instructions: 1980000000 cycles: 1427471352 heartbeat IPC: 1.1065 cumulative IPC: 1.13634 (Simulation time: 2 hr 31 min 18 sec) 
Heartbeat CPU 0 instructions: 1990000003 cycles: 1436003888 heartbeat IPC: 1.17198 cumulative IPC: 1.13657 (Simulation time: 2 hr 31 min 58 sec) 
*** Reached end of trace: traces/648.exchange2_s-1227B.champsimtrace.xz
Heartbeat CPU 0 instructions: 2000000000 cycles: 1444824095 heartbeat IPC: 1.13376 cumulative IPC: 1.13655 (Simulation time: 2 hr 32 min 46 sec) 
Finished CPU 0 instructions: 1500000001 cycles: 1319782058 cumulative IPC: 1.13655 (Simulation time: 2 hr 32 min 46 sec) 

ChampSim completed all CPUs

Region of Interest Statistics

CPU 0 cumulative IPC: 1.13655 instructions: 1500000001 cycles: 1319782058
cpu0_DTLB TOTAL     ACCESS:  230981682  HIT:  230981663  MISS:         19
cpu0_DTLB LOAD      ACCESS:  113121577  HIT:  113121562  MISS:         15
cpu0_DTLB RFO       ACCESS:  117860105  HIT:  117860101  MISS:          4
cpu0_DTLB PREFETCH  ACCESS:          0  HIT:          0  MISS:          0
cpu0_DTLB WRITEBACK ACCESS:          0  HIT:          0  MISS:          0
cpu0_DTLB TRANSLATION ACCESS:          0  HIT:          0  MISS:          0
cpu0_DTLB PREFETCH  REQUESTED:          0  ISSUED:          0  USEFUL:          0  USELESS:          0
cpu0_DTLB AVERAGE MISS LATENCY: 217 cycles
cpu0_ITLB TOTAL     ACCESS:  145616577  HIT:  145616557  MISS:         20
cpu0_ITLB LOAD      ACCESS:  145616577  HIT:  145616557  MISS:         20
cpu0_ITLB RFO       ACCESS:          0  HIT:          0  MISS:          0
cpu0_ITLB PREFETCH  ACCESS:          0  HIT:          0  MISS:          0
cpu0_ITLB WRITEBACK ACCESS:          0  HIT:          0  MISS:          0
cpu0_ITLB TRANSLATION ACCESS:          0  HIT:          0  MISS:          0
cpu0_ITLB PREFETCH  REQUESTED:          0  ISSUED:          0  USEFUL:          0  USELESS:          0
cpu0_ITLB AVERAGE MISS LATENCY: 206.6 cycles
cpu0_L1I TOTAL     ACCESS:  130086583  HIT:  130008776  MISS:      77807
cpu0_L1I LOAD      ACCESS:  130086583  HIT:  130008776  MISS:      77807
cpu0_L1I RFO       ACCESS:          0  HIT:          0  MISS:          0
cpu0_L1I PREFETCH  ACCESS:          0  HIT:          0  MISS:          0
cpu0_L1I WRITEBACK ACCESS:          0  HIT:          0  MISS:          0
cpu0_L1I TRANSLATION ACCESS:          0  HIT:          0  MISS:          0
cpu0_L1I PREFETCH  REQUESTED:          0  ISSUED:          0  USEFUL:          0  USELESS:          0
cpu0_L1I AVERAGE MISS LATENCY: 11.5103 cycles
cpu0_STLB TOTAL     ACCESS:         39  HIT:          1  MISS:         38
cpu0_STLB LOAD      ACCESS:         35  HIT:          1  MISS:         34
cpu0_STLB RFO       ACCESS:          4  HIT:          0  MISS:          4
cpu0_STLB PREFETCH  ACCESS:          0  HIT:          0  MISS:          0
cpu0_STLB WRITEBACK ACCESS:          0  HIT:          0  MISS:          0
cpu0_STLB TRANSLATION ACCESS:          0  HIT:          0  MISS:          0
cpu0_STLB PREFETCH  REQUESTED:          0  ISSUED:          0  USEFUL:          0  USELESS:          0
cpu0_STLB AVERAGE MISS LATENCY: 208 cycles
cpu0_L1D TOTAL     ACCESS:  408355902  HIT:  408355788  MISS:        114
cpu0_L1D LOAD      ACCESS:  196955725  HIT:  196955666  MISS:         59
cpu0_L1D RFO       ACCESS:  211400139  HIT:  211400084  MISS:         55
cpu0_L1D PREFETCH  ACCESS:          0  HIT:          0  MISS:          0
cpu0_L1D WRITEBACK ACCESS:          0  HIT:          0  MISS:          0
cpu0_L1D TRANSLATION ACCESS:         38  HIT:         38  MISS:          0
cpu0_L1D PREFETCH  REQUESTED:          0  ISSUED:          0  USEFUL:          0  USELESS:          0
cpu0_L1D AVERAGE MISS LATENCY: 195.982 cycles
cpu0_L2C TOTAL     ACCESS:      77921  HIT:      77576  MISS:        345
cpu0_L2C LOAD      ACCESS:      77866  HIT:      77576  MISS:        290
cpu0_L2C RFO       ACCESS:         55  HIT:          0  MISS:         55
cpu0_L2C PREFETCH  ACCESS:          0  HIT:          0  MISS:          0
cpu0_L2C WRITEBACK ACCESS:          0  HIT:          0  MISS:          0
cpu0_L2C TRANSLATION ACCESS:          0  HIT:          0  MISS:          0
cpu0_L2C PREFETCH  REQUESTED:          0  ISSUED:          0  USEFUL:          0  USELESS:          0
cpu0_L2C AVERAGE MISS LATENCY: 176.2 cycles
LLC TOTAL     ACCESS:        345  HIT:          0  MISS:        345
LLC LOAD      ACCESS:        290  HIT:          0  MISS:        290
LLC RFO       ACCESS:         55  HIT:          0  MISS:         55
LLC PREFETCH  ACCESS:          0  HIT:          0  MISS:          0
LLC WRITEBACK ACCESS:          0  HIT:          0  MISS:          0
LLC TRANSLATION ACCESS:          0  HIT:          0  MISS:          0
LLC PREFETCH  REQUESTED:          0  ISSUED:          0  USEFUL:          0  USELESS:          0
LLC AVERAGE MISS LATENCY: 155.2 cycles
~~~~~~~~~~Reuse Distance Profiler output~~~~~~~~~~
0	154776720	36001248
1	65930080	20478848
2	37967520	13984896
3	30734240	11381104
4	19600496	6953792
5	17858048	7541808
6	10669568	4640000
7	8309376	3939168
8	7314944	3834752
9	5737760	3743856
10	4536240	3290720
11	5182192	3722800
12	5951824	3893488
13	5962576	4618672
14	5493680	3301680
15	3001152	1780864
16	3565904	3103344
17	2066320	1395440
18	2278384	1850896
19	2268912	1735664
20	1862672	1599904
21	1487136	1077792
22	1808016	1432208
23	1764656	1407568
24	1745360	1427040
25	1734944	1171376
26	1270304	1067904
27	1206128	935568
28	1017856	843232
29	991536	867232
30	1693056	1202704
31	1394912	1134240
32	1096720	857728
33	985104	788656
34	1370400	1205456
35	1025872	867312
36	928016	820848
37	726720	635280
38	956288	832944
39	872640	737696
40	891056	754416
41	871280	747696
42	723280	597232
43	982592	833216
44	1063152	914816
45	938384	783920
46	997680	815120
47	822896	646160
48	1161008	835120
49	901648	744912
50	1293072	1124496
51	1334704	1166944
52	961488	795648
53	789024	642384
54	1027248	847488
55	938096	774048
56	1157792	975424
57	1015536	822352
58	962512	752848
59	1192288	894592
60	819296	638800
61	798464	614432
62	749360	553184
63	1103024	939456
64	1728704	1292784
66	1318176	977856
68	1040592	613760
70	1316224	901568
72	1160288	719520
74	922128	526496
76	947040	549056
78	1030336	641408
80	784224	422080
82	845360	488800
84	773952	401984
86	899600	540144
88	814384	455440
90	778720	385904
92	1087040	664192
94	1154736	701248
96	1032608	638160
98	880416	526336
100	1146784	773808
102	995360	646448
104	976976	633168
106	925024	621488
108	1117904	794624
110	937824	645904
112	862544	578384
114	784768	524928
116	661104	400416
118	672240	413744
120	561792	371104
122	516624	334736
124	443328	300160
126	499520	386752
128	866848	719408
132	874464	806384
136	872240	806432
140	786752	733904
144	784704	723456
148	744944	690288
152	706432	643520
156	736624	670848
160	896944	812624
164	846608	742912
168	654688	571744
172	737856	673616
176	691072	609776
180	623936	541376
184	697040	596208
188	834304	711824
192	803024	679776
196	832304	682800
200	761632	643584
204	732816	635216
208	737552	638976
212	805440	709408
216	703136	605952
220	758640	653712
224	691408	613904
228	678368	619760
232	698576	633872
236	668800	608192
240	568528	525824
244	559488	519984
248	657360	616928
252	620704	583808
256	1138528	1047024
264	1104240	1001040
272	1206672	1096112
280	1298912	1199984
288	1148128	1043440
296	938288	828112
304	937424	826128
312	943520	818864
320	941184	841584
328	732016	668208
336	793984	737760
344	722240	669824
352	686528	593376
360	680576	575120
368	785760	683536
376	732672	647120
384	717632	634240
392	750976	674192
400	581520	506320
408	589488	502912
416	584928	495280
424	549664	460000
432	582544	493936
440	532512	439552
448	433904	359328
456	423056	355232
464	435376	359344
472	488688	410272
480	487120	408528
488	449776	377888
496	430896	356752
504	395920	326704
512	700224	590992
528	717456	590848
544	755120	604288
560	546144	434336
576	508496	393248
592	528304	403808
608	479840	377184
624	412416	331824
640	478624	373920
656	427792	331552
672	423264	324448
688	416512	303584
704	410496	303600
720	346752	272672
736	368576	298896
752	388480	302272
768	308432	227664
784	323040	231520
800	336176	249632
816	319600	240896
832	299120	231184
848	322112	247584
864	265712	194912
880	238208	170656
896	252720	180000
912	222784	159744
928	217184	162208
944	216784	168896
960	226560	176832
976	174864	132320
992	186448	138368
1008	169392	124768
1024	332656	259952
1056	330256	258304
1088	305952	223760
1120	277184	206016
1152	259152	191600
1184	222832	158112
1216	213584	152576
1248	185008	132960
1280	183184	127136
1312	175152	121248
1344	156128	109232
1376	162480	119728
1408	146528	99856
1440	151712	108416
1472	130416	95712
1504	134720	94192
1536	118224	80688
1568	105968	76832
1600	106704	72560
1632	99088	71648
1664	101632	75344
1696	102640	72320
1728	95936	65696
1760	87760	63712
1792	88896	63120
1824	88832	60960
1856	90176	63664
1888	89504	64144
1920	86992	57232
1952	82912	56320
1984	77536	56688
2016	73072	52096
2048	151280	111584
2112	134224	95760
2176	129280	95328
2240	133184	97568
2304	120592	89824
2368	121456	90224
2432	114544	84592
2496	101264	77472
2560	102096	79904
2624	89488	68576
2688	86032	66992
2752	92352	72208
2816	77120	61200
2880	71872	57520
2944	69664	54816
3008	68272	54544
3072	63056	50176
3136	62048	49200
3200	56272	43488
3264	53632	41584
3328	53600	43520
3392	52832	42368
3456	44048	34544
3520	45744	37040
3584	42944	34912
3648	39776	32544
3712	35824	28688
3776	33936	26528
3840	34224	26832
3904	33280	26176
3968	34928	27392
4032	31632	26192
4096	58336	46272
4224	56208	45152
4352	45840	35888
4480	48272	37472
4608	39904	31360
4736	38240	29616
4864	33328	25280
4992	30432	22832
5120	29280	22256
5248	26912	19904
5376	26176	19504
5504	24928	18976
5632	20576	15344
5760	20272	14896
5888	19456	14176
6016	17600	13008
6144	18592	13488
6272	17952	12736
6400	17936	12240
6528	17184	11008
6656	15744	10432
6784	15312	10528
6912	13248	9280
7040	14576	9616
7168	13264	8240
7296	13376	8384
7424	11376	7600
7552	12208	8096
7680	11920	7184
7808	10768	6400
7936	9936	5840
8064	10144	6048
8192	18848	11440
8448	17184	10224
8704	13984	7520
8960	12784	7568
9216	12080	7392
9472	11088	7424
9728	10032	6144
9984	9344	5488
10240	8832	5616
10496	7120	4576
10752	7216	4128
11008	6976	4016
11264	6032	3568
11520	5040	3232
11776	5792	2640
12032	4736	2192
12288	4032	1904
12544	3312	1600
12800	3072	1760
13056	2784	1712
13312	2752	1648
13568	3248	1712
13824	2784	1712
14080	2496	1280
14336	2720	1408
14592	2144	1232
14848	2576	1104
15104	2800	1536
15360	2560	1344
15616	2688	1584
15872	2784	1376
16128	2928	1520
16384	4944	2256
16896	5856	3056
17408	6816	4272
17920	5760	3824
18432	4864	2976
18944	4624	2832
19456	5440	3904
19968	5120	3632
20480	4432	2768
20992	4784	3088
21504	4096	2672
22016	3680	2336
22528	3392	2192
23040	4000	2608
23552	3888	2528
24064	3632	2560
24576	3856	2672
25088	3936	2752
25600	3344	2624
26112	3616	2800
26624	3424	2704
27136	3584	2752
27648	3568	2736
28160	3264	2544
28672	3536	2544
29184	3280	2432
29696	3536	2640
30208	3216	2752
30720	2832	2160
31232	3232	2624
31744	3408	2624
32256	3664	3152
32768	6496	5184
33792	8032	7040
34816	7504	6384
35840	5376	4096
36864	6144	4928
37888	5936	4800
38912	4704	3968
39936	3984	2768
40960	3296	2304
41984	3680	2688
43008	2992	2128
44032	2400	1760
45056	2624	1584
46080	2624	1552
47104	2816	1600
48128	2128	1296
49152	2048	1168
50176	2416	1664
51200	2336	1328
52224	1888	1200
53248	2288	1616
54272	2352	1456
55296	1968	1200
56320	2080	1296
57344	1680	1024
58368	1728	1152
59392	2240	1712
60416	1936	1216
61440	2496	1712
62464	1984	1200
63488	1936	1216
64512	2368	1440
65536	3648	2368
67584	3520	2224
69632	3888	2576
71680	3344	2224
73728	3104	1904
75776	3360	2400
77824	2800	1904
79872	2960	1824
81920	2816	2000
83968	2880	1984
86016	2480	1552
88064	2816	2272
90112	2720	1872
92160	2256	1504
94208	1952	1280
96256	2128	1584
98304	1568	880
100352	1792	1200
102400	2016	1056
104448	1744	1136
106496	2112	1600
108544	1616	1056
110592	1840	1248
112640	1600	1216
114688	1808	1392
116736	1328	832
118784	1024	720
120832	1056	672
122880	1168	768
124928	1232	832
126976	1120	736
129024	1104	656
131072	1952	1328
135168	1984	1360
139264	1616	1024
143360	1344	784
147456	1344	944
151552	1552	1008
155648	1008	672
159744	1104	656
163840	1232	624
167936	1024	416
172032	1424	704
176128	1264	544
180224	704	448
184320	832	544
188416	720	496
192512	576	272
196608	448	288
200704	880	384
204800	656	352
208896	752	448
212992	528	336
217088	480	272
221184	896	240
225280	400	224
229376	640	288
233472	512	352
237568	480	224
241664	336	240
245760	432	352
249856	512	352
253952	272	160
258048	352	256
262144	912	464
270336	640	336
278528	640	400
286720	576	352
294912	1072	304
303104	1120	400
311296	832	288
319488	352	224
327680	832	592
335872	832	352
344064	1120	272
352256	1696	288
360448	1248	208
368640	720	256
376832	336	48
385024	464	176
393216	624	128
401408	544	208
409600	400	48
417792	512	176
425984	272	48
434176	736	64
442368	528	96
450560	528	160
458752	304	144
466944	176	112
475136	544	144
483328	480	128
491520	192	80
499712	272	96
507904	320	128
516096	352	160
524288	688	240
540672	1056	400
557056	512	224
573440	928	272
589824	400	192
606208	576	176
622592	480	240
638976	144	64
655360	576	224
671744	160	48
688128	224	96
704512	224	144
720896	352	96
737280	304	96
753664	192	96
770048	224	96
786432	320	96
802816	288	64
819200	432	224
835584	128	48
851968	304	112
868352	384	112
884736	176	64
901120	96	16
917504	64	16
933888	208	80
950272	240	48
966656	224	144
983040	208	96
999424	128	48
1015808	96	16
1032192	192	112
1048576	176	144
1081344	240	96
1114112	352	160
1146880	208	96
1179648	352	240
1212416	336	176
1245184	80	80
1277952	64	48
1310720	208	128
1343488	160	48
1376256	112	64
1409024	224	48
1441792	32	32
1474560	0	0
1507328	32	32
1540096	80	48
1572864	176	112
1605632	64	48
1638400	16	16
1671168	0	0
1703936	192	112
1736704	160	80
1769472	144	96
1802240	48	16
1835008	16	0
1867776	32	16
1900544	16	16
1933312	48	48
1966080	96	96
1998848	16	0
2031616	112	64
2064384	112	48
2097152	256	144
2162688	128	80
2228224	112	48
2293760	112	80
2359296	160	128
2424832	288	32
2490368	96	32
2555904	0	0
2621440	16	16
2686976	0	0
2752512	0	0
2818048	32	32
2883584	16	16
2949120	0	0
3014656	0	0
3080192	96	48
3145728	0	0
3211264	16	16
3276800	160	48
3342336	128	80
3407872	64	48
3473408	32	16
3538944	16	16
3604480	32	32
3670016	160	96
3735552	0	0
3801088	64	0
3866624	0	0
3932160	48	16
3997696	0	0
4063232	32	0
4128768	0	0
4194304	0	0
4325376	80	48
4456448	32	16
4587520	144	32
4718592	0	0
4849664	64	16
4980736	144	64
5111808	80	32
5242880	96	32
5373952	32	0
5505024	0	0
5636096	16	0
5767168	96	16
5898240	64	0
6029312	0	0
6160384	0	0
6291456	16	16
6422528	0	0
6553600	0	0
6684672	0	0
6815744	0	0
6946816	0	0
7077888	0	0
7208960	96	32
7340032	0	0
7471104	0	0
7602176	48	16
7733248	0	0
7864320	0	0
7995392	0	0
8126464	0	0
8257536	0	0
8388608	0	0
8650752	16	16
8912896	0	0
9175040	0	0
9437184	0	0
9699328	0	0
9961472	32	0
10223616	16	0
10485760	48	16
10747904	0	0
11010048	96	0
11272192	48	32
11534336	0	0
11796480	96	16
12058624	0	0
12320768	0	0
12582912	0	0
12845056	64	48
13107200	48	48
13369344	0	0
13631488	0	0
13893632	0	0
14155776	0	0
14417920	48	0
14680064	0	0
14942208	0	0
15204352	16	16
15466496	16	16
15728640	0	0
15990784	0	0
16252928	0	0
16515072	0	0
16777216	0	0
17301504	0	0
17825792	0	0
18350080	64	0
18874368	16	0
19398656	80	0
19922944	0	0
20447232	32	0
20971520	0	0
21495808	0	0
22020096	0	0
22544384	0	0
23068672	0	0
23592960	0	0
24117248	0	0
24641536	0	0
25165824	0	0
25690112	0	0
26214400	32	16
26738688	112	16
27262976	0	0
27787264	0	0
28311552	32	32
28835840	32	16
29360128	0	0
29884416	0	0
30408704	0	0
30932992	0	0
31457280	0	0
31981568	0	0
32505856	0	0
33030144	0	0
33554432	0	0
34603008	0	0
35651584	0	0
36700160	0	0
37748736	16	0
38797312	0	0
39845888	0	0
40894464	16	0
41943040	0	0
42991616	0	0
44040192	0	0
45088768	0	0
46137344	0	0
47185920	16	16
48234496	96	80
49283072	32	0
50331648	0	0
51380224	0	0
52428800	0	0
53477376	112	16
54525952	112	48
55574528	32	0
56623104	0	0
57671680	0	0
58720256	16	0
59768832	112	48
60817408	0	0
61865984	0	0
62914560	32	0
63963136	0	0
65011712	0	0
66060288	0	0
67108864	0	0
69206016	0	0
71303168	0	0
73400320	0	0
75497472	0	0
77594624	0	0
79691776	0	0
81788928	16	0
83886080	0	0
85983232	0	0
88080384	0	0
90177536	0	0
92274688	0	0
94371840	128	32
96468992	0	0
98566144	0	0
100663296	0	0
102760448	0	0
104857600	0	0
106954752	0	0
109051904	0	0
111149056	0	0
113246208	0	0
115343360	0	0
117440512	0	0
119537664	0	0
121634816	0	0
123731968	0	0
125829120	0	0
127926272	0	0
130023424	0	0
132120576	0	0
134217728	0	0
138412032	0	0
142606336	0	0
146800640	0	0
150994944	0	0
155189248	0	0
159383552	0	0
163577856	0	0
167772160	0	0
171966464	0	0
176160768	0	0
180355072	0	0
184549376	0	0
188743680	0	0
192937984	0	0
197132288	0	0
201326592	0	0
205520896	0	0
209715200	0	0
213909504	0	0
218103808	0	0
222298112	0	0
226492416	0	0
230686720	0	0
234881024	16	16
239075328	0	0
243269632	0	0
247463936	0	0
251658240	0	0
255852544	0	0
260046848	0	0
264241152	0	0
268435456	0	0
276824064	0	0
285212672	0	0
293601280	0	0
301989888	0	0
310378496	0	0
318767104	0	0
327155712	0	0
335544320	0	0
343932928	0	0
352321536	0	0
360710144	0	0
369098752	0	0
377487360	0	0
385875968	0	0
394264576	0	0
402653184	0	0
411041792	0	0
419430400	0	0
427819008	0	0
436207616	0	0
444596224	0	0
452984832	0	0
461373440	0	0
469762048	0	0
478150656	0	0
486539264	0	0
494927872	0	0
503316480	0	0
511705088	0	0
520093696	0	0
528482304	0	0
536870912	0	0
553648128	0	0
570425344	0	0
587202560	0	0
603979776	0	0
620756992	0	0
637534208	0	0
654311424	0	0
671088640	0	0
687865856	0	0
704643072	0	0
721420288	0	0
738197504	0	0
754974720	0	0
771751936	0	0
788529152	0	0
805306368	0	0
822083584	0	0
838860800	0	0
855638016	0	0
872415232	0	0
889192448	0	0
905969664	0	0
922746880	0	0
939524096	0	0
956301312	0	0
973078528	0	0
989855744	0	0
1006632960	0	0
1023410176	0	0
1040187392	0	0
1056964608	0	0
1073741824	0	0
1107296256	0	0
1140850688	0	0
1174405120	0	0
1207959552	0	0
1241513984	0	0
1275068416	0	0
1308622848	0	0
1342177280	0	0
1375731712	0	0
1409286144	0	0
1442840576	0	0
1476395008	0	0
1509949440	0	0
1543503872	0	0
1577058304	0	0
1610612736	0	0
1644167168	0	0
1677721600	0	0
1711276032	0	0
1744830464	0	0
1778384896	0	0
1811939328	0	0
1845493760	0	0
1879048192	0	0
1912602624	0	0
1946157056	0	0
1979711488	0	0
2013265920	0	0
2046820352	0	0
2080374784	0	0
2113929216	0	0
2147483648	0	0
2214592512	0	0
2281701376	0	0
2348810240	0	0
2415919104	0	0
2483027968	0	0
2550136832	0	0
2617245696	0	0
2684354560	0	0
2751463424	0	0
2818572288	0	0
2885681152	0	0
2952790016	0	0
3019898880	0	0
3087007744	0	0
3154116608	0	0
3221225472	0	0
3288334336	0	0
3355443200	0	0
3422552064	0	0
3489660928	0	0
3556769792	0	0
3623878656	0	0
3690987520	0	0
3758096384	0	0
3825205248	0	0
3892314112	0	0
3959422976	0	0
4026531840	0	0
4093640704	0	0
4160749568	0	0
4227858432	0	0
~~~~~~~~~~Reuse Distance Profiler output end~~~~~~~~~~

DRAM Statistics
 CHANNEL 0
 RQ ROW_BUFFER_HIT:         39  ROW_BUFFER_MISS:        306
 DBUS AVG_CONGESTED_CYCLE:    3.72727
 WQ ROW_BUFFER_HIT:          0  ROW_BUFFER_MISS:          0  FULL:          0


CPU 0 Branch Prediction Accuracy: 75.4336% MPKI: 34.7829 Average ROB Occupancy at Mispredict: 10.4375
Branch type MPKI
BRANCH_DIRECT_JUMP: 2.93333e-05
BRANCH_INDIRECT: 1.93333e-05
BRANCH_CONDITIONAL: 34.7828
BRANCH_DIRECT_CALL: 4.4e-05
BRANCH_INDIRECT_CALL: 2.66667e-06
BRANCH_RETURN: 3.8e-05

