
*** ChampSim Multicore Out-of-Order Simulator ***

Warmup Instructions: 500000000
Simulation Instructions: 1500000000
Number of CPUs: 1
Off-chip DRAM Size: 4 GiB Channels: 1 Width: 64-bit Data Rate: 3200 MT/s

VirtualMemory physical capacity: 8588881920 num_ppages: 2096895
VirtualMemory page size: 4096 log2_page_size: 12

CPU 0 runs traces/648.exchange2_s-210B.champsimtrace.xz
CPU 0 Bimodal branch predictor
Basic BTB sets: 1024 ways: 8 indirect buffer size: 4096 RAS size: 64
Initializing LRU.
Initializing LRU.
Initializing LRU.
Initializing LRU.
Initializing rdLRU.
Initializing LRU.
Initializing LRU.
Heartbeat CPU 0 instructions: 10000000 cycles: 2500243 heartbeat IPC: 3.99961 cumulative IPC: 3.99961 (Simulation time: 0 hr 0 min 52 sec) 
Heartbeat CPU 0 instructions: 20000000 cycles: 5000243 heartbeat IPC: 4 cumulative IPC: 3.99981 (Simulation time: 0 hr 1 min 32 sec) 
Heartbeat CPU 0 instructions: 30000000 cycles: 7500243 heartbeat IPC: 4 cumulative IPC: 3.99987 (Simulation time: 0 hr 2 min 18 sec) 
Heartbeat CPU 0 instructions: 40000000 cycles: 10000243 heartbeat IPC: 4 cumulative IPC: 3.9999 (Simulation time: 0 hr 2 min 54 sec) 
Heartbeat CPU 0 instructions: 50000000 cycles: 12500243 heartbeat IPC: 4 cumulative IPC: 3.99992 (Simulation time: 0 hr 3 min 49 sec) 
Heartbeat CPU 0 instructions: 60000000 cycles: 15000243 heartbeat IPC: 4 cumulative IPC: 3.99994 (Simulation time: 0 hr 4 min 40 sec) 
Heartbeat CPU 0 instructions: 70000000 cycles: 17500243 heartbeat IPC: 4 cumulative IPC: 3.99994 (Simulation time: 0 hr 5 min 31 sec) 
Heartbeat CPU 0 instructions: 80000000 cycles: 20000243 heartbeat IPC: 4 cumulative IPC: 3.99995 (Simulation time: 0 hr 6 min 16 sec) 
Heartbeat CPU 0 instructions: 90000000 cycles: 22500243 heartbeat IPC: 4 cumulative IPC: 3.99996 (Simulation time: 0 hr 7 min 6 sec) 
Heartbeat CPU 0 instructions: 100000000 cycles: 25000243 heartbeat IPC: 4 cumulative IPC: 3.99996 (Simulation time: 0 hr 8 min 0 sec) 
Heartbeat CPU 0 instructions: 110000000 cycles: 27500243 heartbeat IPC: 4 cumulative IPC: 3.99996 (Simulation time: 0 hr 8 min 53 sec) 
Heartbeat CPU 0 instructions: 120000000 cycles: 30000243 heartbeat IPC: 4 cumulative IPC: 3.99997 (Simulation time: 0 hr 9 min 49 sec) 
Heartbeat CPU 0 instructions: 130000000 cycles: 32500243 heartbeat IPC: 4 cumulative IPC: 3.99997 (Simulation time: 0 hr 10 min 38 sec) 
Heartbeat CPU 0 instructions: 140000000 cycles: 35000243 heartbeat IPC: 4 cumulative IPC: 3.99997 (Simulation time: 0 hr 11 min 33 sec) 
Heartbeat CPU 0 instructions: 150000000 cycles: 37500243 heartbeat IPC: 4 cumulative IPC: 3.99997 (Simulation time: 0 hr 12 min 30 sec) 
Heartbeat CPU 0 instructions: 160000000 cycles: 40000243 heartbeat IPC: 4 cumulative IPC: 3.99998 (Simulation time: 0 hr 13 min 26 sec) 
Heartbeat CPU 0 instructions: 170000000 cycles: 42500243 heartbeat IPC: 4 cumulative IPC: 3.99998 (Simulation time: 0 hr 14 min 21 sec) 
Heartbeat CPU 0 instructions: 180000000 cycles: 45000243 heartbeat IPC: 4 cumulative IPC: 3.99998 (Simulation time: 0 hr 15 min 17 sec) 
Heartbeat CPU 0 instructions: 190000000 cycles: 47500243 heartbeat IPC: 4 cumulative IPC: 3.99998 (Simulation time: 0 hr 16 min 14 sec) 
Heartbeat CPU 0 instructions: 200000000 cycles: 50000243 heartbeat IPC: 4 cumulative IPC: 3.99998 (Simulation time: 0 hr 17 min 7 sec) 
Heartbeat CPU 0 instructions: 210000000 cycles: 52500243 heartbeat IPC: 4 cumulative IPC: 3.99998 (Simulation time: 0 hr 18 min 0 sec) 
Heartbeat CPU 0 instructions: 220000000 cycles: 55000243 heartbeat IPC: 4 cumulative IPC: 3.99998 (Simulation time: 0 hr 18 min 54 sec) 
Heartbeat CPU 0 instructions: 230000000 cycles: 57500243 heartbeat IPC: 4 cumulative IPC: 3.99998 (Simulation time: 0 hr 19 min 46 sec) 
Heartbeat CPU 0 instructions: 240000000 cycles: 60000243 heartbeat IPC: 4 cumulative IPC: 3.99998 (Simulation time: 0 hr 20 min 40 sec) 
Heartbeat CPU 0 instructions: 250000000 cycles: 62500243 heartbeat IPC: 4 cumulative IPC: 3.99998 (Simulation time: 0 hr 21 min 38 sec) 
Heartbeat CPU 0 instructions: 260000000 cycles: 65000243 heartbeat IPC: 4 cumulative IPC: 3.99998 (Simulation time: 0 hr 22 min 33 sec) 
Heartbeat CPU 0 instructions: 270000000 cycles: 67500243 heartbeat IPC: 4 cumulative IPC: 3.99999 (Simulation time: 0 hr 23 min 27 sec) 
Heartbeat CPU 0 instructions: 280000000 cycles: 70000243 heartbeat IPC: 4 cumulative IPC: 3.99999 (Simulation time: 0 hr 24 min 17 sec) 
Heartbeat CPU 0 instructions: 290000000 cycles: 72500243 heartbeat IPC: 4 cumulative IPC: 3.99999 (Simulation time: 0 hr 25 min 10 sec) 
Heartbeat CPU 0 instructions: 300000000 cycles: 75000243 heartbeat IPC: 4 cumulative IPC: 3.99999 (Simulation time: 0 hr 26 min 2 sec) 
Heartbeat CPU 0 instructions: 310000000 cycles: 77500243 heartbeat IPC: 4 cumulative IPC: 3.99999 (Simulation time: 0 hr 26 min 58 sec) 
Heartbeat CPU 0 instructions: 320000000 cycles: 80000243 heartbeat IPC: 4 cumulative IPC: 3.99999 (Simulation time: 0 hr 27 min 55 sec) 
Heartbeat CPU 0 instructions: 330000000 cycles: 82500243 heartbeat IPC: 4 cumulative IPC: 3.99999 (Simulation time: 0 hr 28 min 49 sec) 
Heartbeat CPU 0 instructions: 340000003 cycles: 85000466 heartbeat IPC: 3.99964 cumulative IPC: 3.99998 (Simulation time: 0 hr 29 min 42 sec) 
Heartbeat CPU 0 instructions: 350000003 cycles: 87500658 heartbeat IPC: 3.99969 cumulative IPC: 3.99997 (Simulation time: 0 hr 30 min 37 sec) 
Heartbeat CPU 0 instructions: 360000003 cycles: 90000658 heartbeat IPC: 4 cumulative IPC: 3.99997 (Simulation time: 0 hr 31 min 26 sec) 
Heartbeat CPU 0 instructions: 370000003 cycles: 92500658 heartbeat IPC: 4 cumulative IPC: 3.99997 (Simulation time: 0 hr 32 min 21 sec) 
Heartbeat CPU 0 instructions: 380000003 cycles: 95000658 heartbeat IPC: 4 cumulative IPC: 3.99997 (Simulation time: 0 hr 33 min 17 sec) 
Heartbeat CPU 0 instructions: 390000003 cycles: 97500658 heartbeat IPC: 4 cumulative IPC: 3.99997 (Simulation time: 0 hr 34 min 11 sec) 
Heartbeat CPU 0 instructions: 400000003 cycles: 100000658 heartbeat IPC: 4 cumulative IPC: 3.99997 (Simulation time: 0 hr 35 min 5 sec) 
Heartbeat CPU 0 instructions: 410000003 cycles: 102500658 heartbeat IPC: 4 cumulative IPC: 3.99997 (Simulation time: 0 hr 35 min 47 sec) 
Heartbeat CPU 0 instructions: 420000003 cycles: 105000990 heartbeat IPC: 3.99947 cumulative IPC: 3.99996 (Simulation time: 0 hr 36 min 31 sec) 
Heartbeat CPU 0 instructions: 430000003 cycles: 107500990 heartbeat IPC: 4 cumulative IPC: 3.99996 (Simulation time: 0 hr 37 min 22 sec) 
Heartbeat CPU 0 instructions: 440000003 cycles: 110000990 heartbeat IPC: 4 cumulative IPC: 3.99996 (Simulation time: 0 hr 38 min 4 sec) 
Heartbeat CPU 0 instructions: 450000003 cycles: 112500990 heartbeat IPC: 4 cumulative IPC: 3.99996 (Simulation time: 0 hr 38 min 58 sec) 
Heartbeat CPU 0 instructions: 460000003 cycles: 115000990 heartbeat IPC: 4 cumulative IPC: 3.99997 (Simulation time: 0 hr 39 min 56 sec) 
Heartbeat CPU 0 instructions: 470000000 cycles: 117501320 heartbeat IPC: 3.99947 cumulative IPC: 3.99996 (Simulation time: 0 hr 40 min 48 sec) 
Heartbeat CPU 0 instructions: 480000000 cycles: 120001320 heartbeat IPC: 4 cumulative IPC: 3.99996 (Simulation time: 0 hr 41 min 36 sec) 
Heartbeat CPU 0 instructions: 490000003 cycles: 122502318 heartbeat IPC: 3.9984 cumulative IPC: 3.99992 (Simulation time: 0 hr 42 min 27 sec) 
Heartbeat CPU 0 instructions: 500000003 cycles: 125002318 heartbeat IPC: 4 cumulative IPC: 3.99993 (Simulation time: 0 hr 43 min 16 sec) 

Warmup complete CPU 0 instructions: 500000003 cycles: 125002318 (Simulation time: 0 hr 43 min 16 sec) 

Heartbeat CPU 0 instructions: 510000001 cycles: 133185113 heartbeat IPC: 1.22208 cumulative IPC: 1.22208 (Simulation time: 0 hr 44 min 1 sec) 
Heartbeat CPU 0 instructions: 520000001 cycles: 141423802 heartbeat IPC: 1.21379 cumulative IPC: 1.21792 (Simulation time: 0 hr 44 min 46 sec) 
Heartbeat CPU 0 instructions: 530000004 cycles: 149810400 heartbeat IPC: 1.19238 cumulative IPC: 1.20928 (Simulation time: 0 hr 45 min 30 sec) 
Heartbeat CPU 0 instructions: 540000004 cycles: 158196536 heartbeat IPC: 1.19244 cumulative IPC: 1.20503 (Simulation time: 0 hr 46 min 13 sec) 
Heartbeat CPU 0 instructions: 550000000 cycles: 166468165 heartbeat IPC: 1.20895 cumulative IPC: 1.20581 (Simulation time: 0 hr 47 min 0 sec) 
Heartbeat CPU 0 instructions: 560000004 cycles: 174604254 heartbeat IPC: 1.22909 cumulative IPC: 1.20963 (Simulation time: 0 hr 47 min 49 sec) 
Heartbeat CPU 0 instructions: 570000001 cycles: 182875567 heartbeat IPC: 1.209 cumulative IPC: 1.20954 (Simulation time: 0 hr 48 min 36 sec) 
Heartbeat CPU 0 instructions: 580000003 cycles: 191094270 heartbeat IPC: 1.21674 cumulative IPC: 1.21043 (Simulation time: 0 hr 49 min 21 sec) 
Heartbeat CPU 0 instructions: 590000001 cycles: 199505312 heartbeat IPC: 1.18891 cumulative IPC: 1.20801 (Simulation time: 0 hr 50 min 6 sec) 
Heartbeat CPU 0 instructions: 600000003 cycles: 207982728 heartbeat IPC: 1.17961 cumulative IPC: 1.2051 (Simulation time: 0 hr 50 min 50 sec) 
Heartbeat CPU 0 instructions: 610000004 cycles: 216357753 heartbeat IPC: 1.19403 cumulative IPC: 1.20409 (Simulation time: 0 hr 51 min 27 sec) 
Heartbeat CPU 0 instructions: 620000000 cycles: 224607027 heartbeat IPC: 1.21223 cumulative IPC: 1.20476 (Simulation time: 0 hr 52 min 11 sec) 
Heartbeat CPU 0 instructions: 630000002 cycles: 232877082 heartbeat IPC: 1.20918 cumulative IPC: 1.2051 (Simulation time: 0 hr 52 min 48 sec) 
Heartbeat CPU 0 instructions: 640000001 cycles: 241219677 heartbeat IPC: 1.19867 cumulative IPC: 1.20464 (Simulation time: 0 hr 53 min 32 sec) 
Heartbeat CPU 0 instructions: 650000000 cycles: 249520493 heartbeat IPC: 1.2047 cumulative IPC: 1.20464 (Simulation time: 0 hr 54 min 18 sec) 
Heartbeat CPU 0 instructions: 660000003 cycles: 258005232 heartbeat IPC: 1.17859 cumulative IPC: 1.20298 (Simulation time: 0 hr 55 min 4 sec) 
Heartbeat CPU 0 instructions: 670000001 cycles: 266402710 heartbeat IPC: 1.19083 cumulative IPC: 1.20226 (Simulation time: 0 hr 55 min 47 sec) 
Heartbeat CPU 0 instructions: 680000001 cycles: 274704142 heartbeat IPC: 1.20461 cumulative IPC: 1.20239 (Simulation time: 0 hr 56 min 29 sec) 
Heartbeat CPU 0 instructions: 690000000 cycles: 282943524 heartbeat IPC: 1.21368 cumulative IPC: 1.20298 (Simulation time: 0 hr 57 min 15 sec) 
Heartbeat CPU 0 instructions: 700000003 cycles: 291175859 heartbeat IPC: 1.21472 cumulative IPC: 1.20356 (Simulation time: 0 hr 58 min 0 sec) 
Heartbeat CPU 0 instructions: 710000004 cycles: 299483008 heartbeat IPC: 1.20378 cumulative IPC: 1.20357 (Simulation time: 0 hr 58 min 45 sec) 
Heartbeat CPU 0 instructions: 720000004 cycles: 307922376 heartbeat IPC: 1.18492 cumulative IPC: 1.20271 (Simulation time: 0 hr 59 min 33 sec) 
Heartbeat CPU 0 instructions: 730000004 cycles: 316203120 heartbeat IPC: 1.20762 cumulative IPC: 1.20292 (Simulation time: 1 hr 0 min 18 sec) 
Heartbeat CPU 0 instructions: 740000000 cycles: 324259602 heartbeat IPC: 1.24124 cumulative IPC: 1.20447 (Simulation time: 1 hr 1 min 3 sec) 
Heartbeat CPU 0 instructions: 750000000 cycles: 332515890 heartbeat IPC: 1.2112 cumulative IPC: 1.20474 (Simulation time: 1 hr 1 min 41 sec) 
Heartbeat CPU 0 instructions: 760000000 cycles: 340922738 heartbeat IPC: 1.18951 cumulative IPC: 1.20415 (Simulation time: 1 hr 2 min 27 sec) 
Heartbeat CPU 0 instructions: 770000000 cycles: 349400838 heartbeat IPC: 1.17951 cumulative IPC: 1.20322 (Simulation time: 1 hr 3 min 10 sec) 
Heartbeat CPU 0 instructions: 780000000 cycles: 357651515 heartbeat IPC: 1.21202 cumulative IPC: 1.20353 (Simulation time: 1 hr 3 min 59 sec) 
Heartbeat CPU 0 instructions: 790000001 cycles: 365847878 heartbeat IPC: 1.22005 cumulative IPC: 1.20409 (Simulation time: 1 hr 4 min 44 sec) 
Heartbeat CPU 0 instructions: 800000004 cycles: 374317387 heartbeat IPC: 1.18071 cumulative IPC: 1.2033 (Simulation time: 1 hr 5 min 28 sec) 
Heartbeat CPU 0 instructions: 810000001 cycles: 382626298 heartbeat IPC: 1.20353 cumulative IPC: 1.2033 (Simulation time: 1 hr 6 min 13 sec) 
Heartbeat CPU 0 instructions: 820000002 cycles: 390962581 heartbeat IPC: 1.19958 cumulative IPC: 1.20319 (Simulation time: 1 hr 6 min 59 sec) 
Heartbeat CPU 0 instructions: 830000000 cycles: 399358161 heartbeat IPC: 1.1911 cumulative IPC: 1.20282 (Simulation time: 1 hr 7 min 47 sec) 
Heartbeat CPU 0 instructions: 840000000 cycles: 407741659 heartbeat IPC: 1.19282 cumulative IPC: 1.20252 (Simulation time: 1 hr 8 min 33 sec) 
Heartbeat CPU 0 instructions: 850000000 cycles: 416116508 heartbeat IPC: 1.19405 cumulative IPC: 1.20228 (Simulation time: 1 hr 9 min 21 sec) 
Heartbeat CPU 0 instructions: 860000000 cycles: 424540066 heartbeat IPC: 1.18715 cumulative IPC: 1.20185 (Simulation time: 1 hr 10 min 10 sec) 
Heartbeat CPU 0 instructions: 870000004 cycles: 432941902 heartbeat IPC: 1.19022 cumulative IPC: 1.20153 (Simulation time: 1 hr 10 min 58 sec) 
Heartbeat CPU 0 instructions: 880000002 cycles: 441216690 heartbeat IPC: 1.20849 cumulative IPC: 1.20172 (Simulation time: 1 hr 11 min 45 sec) 
Heartbeat CPU 0 instructions: 890000001 cycles: 449548335 heartbeat IPC: 1.20024 cumulative IPC: 1.20168 (Simulation time: 1 hr 12 min 33 sec) 
Heartbeat CPU 0 instructions: 900000003 cycles: 457896538 heartbeat IPC: 1.19786 cumulative IPC: 1.20158 (Simulation time: 1 hr 13 min 15 sec) 
Heartbeat CPU 0 instructions: 910000003 cycles: 466212779 heartbeat IPC: 1.20247 cumulative IPC: 1.2016 (Simulation time: 1 hr 13 min 57 sec) 
Heartbeat CPU 0 instructions: 920000000 cycles: 474471419 heartbeat IPC: 1.21085 cumulative IPC: 1.20182 (Simulation time: 1 hr 14 min 42 sec) 
Heartbeat CPU 0 instructions: 930000001 cycles: 482821025 heartbeat IPC: 1.19766 cumulative IPC: 1.20173 (Simulation time: 1 hr 15 min 29 sec) 
Heartbeat CPU 0 instructions: 940000001 cycles: 491253987 heartbeat IPC: 1.18582 cumulative IPC: 1.20136 (Simulation time: 1 hr 16 min 13 sec) 
Heartbeat CPU 0 instructions: 950000002 cycles: 499501944 heartbeat IPC: 1.21242 cumulative IPC: 1.2016 (Simulation time: 1 hr 16 min 54 sec) 
Heartbeat CPU 0 instructions: 960000000 cycles: 507858872 heartbeat IPC: 1.19661 cumulative IPC: 1.20149 (Simulation time: 1 hr 17 min 42 sec) 
Heartbeat CPU 0 instructions: 970000000 cycles: 516188797 heartbeat IPC: 1.20049 cumulative IPC: 1.20147 (Simulation time: 1 hr 18 min 26 sec) 
Heartbeat CPU 0 instructions: 980000000 cycles: 524414901 heartbeat IPC: 1.21564 cumulative IPC: 1.20176 (Simulation time: 1 hr 19 min 9 sec) 
Heartbeat CPU 0 instructions: 990000004 cycles: 532853977 heartbeat IPC: 1.18496 cumulative IPC: 1.20142 (Simulation time: 1 hr 19 min 44 sec) 
Heartbeat CPU 0 instructions: 1000000001 cycles: 541225603 heartbeat IPC: 1.19451 cumulative IPC: 1.20128 (Simulation time: 1 hr 20 min 32 sec) 
Heartbeat CPU 0 instructions: 1010000000 cycles: 549592749 heartbeat IPC: 1.19515 cumulative IPC: 1.20116 (Simulation time: 1 hr 21 min 20 sec) 
Heartbeat CPU 0 instructions: 1020000003 cycles: 557943585 heartbeat IPC: 1.19749 cumulative IPC: 1.20109 (Simulation time: 1 hr 22 min 7 sec) 
Heartbeat CPU 0 instructions: 1030000003 cycles: 566399548 heartbeat IPC: 1.1826 cumulative IPC: 1.20073 (Simulation time: 1 hr 22 min 55 sec) 
Heartbeat CPU 0 instructions: 1040000000 cycles: 574832735 heartbeat IPC: 1.18579 cumulative IPC: 1.20045 (Simulation time: 1 hr 23 min 43 sec) 
Heartbeat CPU 0 instructions: 1050000003 cycles: 583252084 heartbeat IPC: 1.18774 cumulative IPC: 1.20022 (Simulation time: 1 hr 24 min 27 sec) 
Heartbeat CPU 0 instructions: 1060000002 cycles: 591643886 heartbeat IPC: 1.19164 cumulative IPC: 1.20006 (Simulation time: 1 hr 25 min 14 sec) 
Heartbeat CPU 0 instructions: 1070000000 cycles: 600068109 heartbeat IPC: 1.18705 cumulative IPC: 1.19983 (Simulation time: 1 hr 26 min 3 sec) 
Heartbeat CPU 0 instructions: 1080000004 cycles: 608473657 heartbeat IPC: 1.18969 cumulative IPC: 1.19966 (Simulation time: 1 hr 26 min 52 sec) 
Heartbeat CPU 0 instructions: 1090000003 cycles: 616821406 heartbeat IPC: 1.19793 cumulative IPC: 1.19963 (Simulation time: 1 hr 27 min 29 sec) 
Heartbeat CPU 0 instructions: 1100000003 cycles: 625117206 heartbeat IPC: 1.20543 cumulative IPC: 1.19972 (Simulation time: 1 hr 28 min 11 sec) 
Heartbeat CPU 0 instructions: 1110000002 cycles: 633459702 heartbeat IPC: 1.19868 cumulative IPC: 1.19971 (Simulation time: 1 hr 28 min 56 sec) 
Heartbeat CPU 0 instructions: 1120000000 cycles: 641905825 heartbeat IPC: 1.18397 cumulative IPC: 1.19945 (Simulation time: 1 hr 29 min 45 sec) 
Heartbeat CPU 0 instructions: 1130000004 cycles: 650264001 heartbeat IPC: 1.19643 cumulative IPC: 1.1994 (Simulation time: 1 hr 30 min 31 sec) 
Heartbeat CPU 0 instructions: 1140000000 cycles: 658372750 heartbeat IPC: 1.23324 cumulative IPC: 1.19992 (Simulation time: 1 hr 31 min 20 sec) 
Heartbeat CPU 0 instructions: 1150000004 cycles: 666718129 heartbeat IPC: 1.19827 cumulative IPC: 1.19989 (Simulation time: 1 hr 32 min 7 sec) 
Heartbeat CPU 0 instructions: 1160000003 cycles: 675075504 heartbeat IPC: 1.19655 cumulative IPC: 1.19984 (Simulation time: 1 hr 32 min 47 sec) 
Heartbeat CPU 0 instructions: 1170000001 cycles: 683491627 heartbeat IPC: 1.1882 cumulative IPC: 1.19966 (Simulation time: 1 hr 33 min 28 sec) 
Heartbeat CPU 0 instructions: 1180000004 cycles: 691873414 heartbeat IPC: 1.19306 cumulative IPC: 1.19957 (Simulation time: 1 hr 34 min 15 sec) 
Heartbeat CPU 0 instructions: 1190000000 cycles: 700248506 heartbeat IPC: 1.19402 cumulative IPC: 1.19949 (Simulation time: 1 hr 35 min 3 sec) 
Heartbeat CPU 0 instructions: 1200000002 cycles: 708752569 heartbeat IPC: 1.17591 cumulative IPC: 1.19914 (Simulation time: 1 hr 35 min 44 sec) 
Heartbeat CPU 0 instructions: 1210000000 cycles: 717247855 heartbeat IPC: 1.17712 cumulative IPC: 1.19883 (Simulation time: 1 hr 36 min 30 sec) 
Heartbeat CPU 0 instructions: 1220000004 cycles: 725665448 heartbeat IPC: 1.18799 cumulative IPC: 1.19868 (Simulation time: 1 hr 37 min 15 sec) 
Heartbeat CPU 0 instructions: 1230000002 cycles: 733961998 heartbeat IPC: 1.20532 cumulative IPC: 1.19877 (Simulation time: 1 hr 37 min 59 sec) 
Heartbeat CPU 0 instructions: 1240000003 cycles: 742427996 heartbeat IPC: 1.1812 cumulative IPC: 1.19852 (Simulation time: 1 hr 38 min 40 sec) 
Heartbeat CPU 0 instructions: 1250000002 cycles: 750826684 heartbeat IPC: 1.19066 cumulative IPC: 1.19842 (Simulation time: 1 hr 39 min 27 sec) 
Heartbeat CPU 0 instructions: 1260000002 cycles: 759212174 heartbeat IPC: 1.19254 cumulative IPC: 1.19834 (Simulation time: 1 hr 40 min 13 sec) 
Heartbeat CPU 0 instructions: 1270000004 cycles: 767568688 heartbeat IPC: 1.19667 cumulative IPC: 1.19832 (Simulation time: 1 hr 41 min 1 sec) 
Heartbeat CPU 0 instructions: 1280000004 cycles: 776026727 heartbeat IPC: 1.18231 cumulative IPC: 1.19811 (Simulation time: 1 hr 41 min 43 sec) 
Heartbeat CPU 0 instructions: 1290000000 cycles: 784438582 heartbeat IPC: 1.1888 cumulative IPC: 1.19799 (Simulation time: 1 hr 42 min 23 sec) 
Heartbeat CPU 0 instructions: 1300000000 cycles: 792725169 heartbeat IPC: 1.20677 cumulative IPC: 1.1981 (Simulation time: 1 hr 43 min 12 sec) 
Heartbeat CPU 0 instructions: 1310000002 cycles: 801155481 heartbeat IPC: 1.1862 cumulative IPC: 1.19795 (Simulation time: 1 hr 44 min 1 sec) 
Heartbeat CPU 0 instructions: 1320000000 cycles: 809567912 heartbeat IPC: 1.18872 cumulative IPC: 1.19784 (Simulation time: 1 hr 44 min 39 sec) 
Heartbeat CPU 0 instructions: 1330000003 cycles: 817897339 heartbeat IPC: 1.20056 cumulative IPC: 1.19787 (Simulation time: 1 hr 45 min 26 sec) 
Heartbeat CPU 0 instructions: 1340000001 cycles: 826392204 heartbeat IPC: 1.17718 cumulative IPC: 1.19762 (Simulation time: 1 hr 46 min 11 sec) 
Heartbeat CPU 0 instructions: 1350000001 cycles: 834880107 heartbeat IPC: 1.17815 cumulative IPC: 1.19739 (Simulation time: 1 hr 46 min 57 sec) 
Heartbeat CPU 0 instructions: 1360000001 cycles: 843360830 heartbeat IPC: 1.17914 cumulative IPC: 1.19717 (Simulation time: 1 hr 47 min 44 sec) 
Heartbeat CPU 0 instructions: 1370000003 cycles: 851835246 heartbeat IPC: 1.18002 cumulative IPC: 1.19697 (Simulation time: 1 hr 48 min 30 sec) 
Heartbeat CPU 0 instructions: 1380000002 cycles: 860264514 heartbeat IPC: 1.18634 cumulative IPC: 1.19685 (Simulation time: 1 hr 49 min 17 sec) 
Heartbeat CPU 0 instructions: 1390000000 cycles: 868581782 heartbeat IPC: 1.20232 cumulative IPC: 1.19691 (Simulation time: 1 hr 50 min 7 sec) 
Heartbeat CPU 0 instructions: 1400000001 cycles: 876970033 heartbeat IPC: 1.19214 cumulative IPC: 1.19686 (Simulation time: 1 hr 50 min 55 sec) 
Heartbeat CPU 0 instructions: 1410000001 cycles: 885391477 heartbeat IPC: 1.18744 cumulative IPC: 1.19676 (Simulation time: 1 hr 51 min 44 sec) 
Heartbeat CPU 0 instructions: 1420000001 cycles: 893733634 heartbeat IPC: 1.19873 cumulative IPC: 1.19678 (Simulation time: 1 hr 52 min 31 sec) 
Heartbeat CPU 0 instructions: 1430000003 cycles: 902119875 heartbeat IPC: 1.19243 cumulative IPC: 1.19673 (Simulation time: 1 hr 53 min 19 sec) 
Heartbeat CPU 0 instructions: 1440000001 cycles: 910520129 heartbeat IPC: 1.19044 cumulative IPC: 1.19666 (Simulation time: 1 hr 54 min 8 sec) 
Heartbeat CPU 0 instructions: 1450000000 cycles: 918866908 heartbeat IPC: 1.19807 cumulative IPC: 1.19668 (Simulation time: 1 hr 54 min 56 sec) 
Heartbeat CPU 0 instructions: 1460000001 cycles: 927093017 heartbeat IPC: 1.21564 cumulative IPC: 1.19687 (Simulation time: 1 hr 55 min 32 sec) 
Heartbeat CPU 0 instructions: 1470000000 cycles: 935337834 heartbeat IPC: 1.21288 cumulative IPC: 1.19704 (Simulation time: 1 hr 56 min 12 sec) 
Heartbeat CPU 0 instructions: 1480000000 cycles: 943521433 heartbeat IPC: 1.22196 cumulative IPC: 1.19728 (Simulation time: 1 hr 57 min 1 sec) 
Heartbeat CPU 0 instructions: 1490000001 cycles: 951680926 heartbeat IPC: 1.22557 cumulative IPC: 1.19756 (Simulation time: 1 hr 57 min 48 sec) 
Heartbeat CPU 0 instructions: 1500000000 cycles: 959952537 heartbeat IPC: 1.20895 cumulative IPC: 1.19768 (Simulation time: 1 hr 58 min 31 sec) 
Heartbeat CPU 0 instructions: 1510000002 cycles: 968116886 heartbeat IPC: 1.22484 cumulative IPC: 1.19794 (Simulation time: 1 hr 59 min 5 sec) 
Heartbeat CPU 0 instructions: 1520000001 cycles: 976250575 heartbeat IPC: 1.22945 cumulative IPC: 1.19824 (Simulation time: 1 hr 59 min 37 sec) 
Heartbeat CPU 0 instructions: 1530000003 cycles: 984575174 heartbeat IPC: 1.20126 cumulative IPC: 1.19827 (Simulation time: 2 hr 0 min 20 sec) 
Heartbeat CPU 0 instructions: 1540000003 cycles: 992761893 heartbeat IPC: 1.22149 cumulative IPC: 1.19849 (Simulation time: 2 hr 1 min 5 sec) 
Heartbeat CPU 0 instructions: 1550000000 cycles: 1000922062 heartbeat IPC: 1.22546 cumulative IPC: 1.19874 (Simulation time: 2 hr 1 min 43 sec) 
Heartbeat CPU 0 instructions: 1560000001 cycles: 1009179976 heartbeat IPC: 1.21096 cumulative IPC: 1.19885 (Simulation time: 2 hr 2 min 27 sec) 
Heartbeat CPU 0 instructions: 1570000001 cycles: 1017400402 heartbeat IPC: 1.21648 cumulative IPC: 1.19902 (Simulation time: 2 hr 3 min 10 sec) 
Heartbeat CPU 0 instructions: 1580000001 cycles: 1025550476 heartbeat IPC: 1.22698 cumulative IPC: 1.19927 (Simulation time: 2 hr 3 min 55 sec) 
Heartbeat CPU 0 instructions: 1590000004 cycles: 1033733729 heartbeat IPC: 1.22201 cumulative IPC: 1.19947 (Simulation time: 2 hr 4 min 33 sec) 
Heartbeat CPU 0 instructions: 1600000000 cycles: 1042330101 heartbeat IPC: 1.16328 cumulative IPC: 1.19914 (Simulation time: 2 hr 5 min 22 sec) 
Heartbeat CPU 0 instructions: 1610000000 cycles: 1050907133 heartbeat IPC: 1.1659 cumulative IPC: 1.19883 (Simulation time: 2 hr 6 min 6 sec) 
Heartbeat CPU 0 instructions: 1620000000 cycles: 1059366601 heartbeat IPC: 1.18211 cumulative IPC: 1.19868 (Simulation time: 2 hr 6 min 55 sec) 
Heartbeat CPU 0 instructions: 1630000001 cycles: 1067858000 heartbeat IPC: 1.17766 cumulative IPC: 1.19849 (Simulation time: 2 hr 7 min 42 sec) 
Heartbeat CPU 0 instructions: 1640000003 cycles: 1076185413 heartbeat IPC: 1.20085 cumulative IPC: 1.19851 (Simulation time: 2 hr 8 min 27 sec) 
Heartbeat CPU 0 instructions: 1650000000 cycles: 1084172926 heartbeat IPC: 1.25195 cumulative IPC: 1.19895 (Simulation time: 2 hr 9 min 13 sec) 
Heartbeat CPU 0 instructions: 1660000002 cycles: 1092165981 heartbeat IPC: 1.25109 cumulative IPC: 1.19938 (Simulation time: 2 hr 10 min 0 sec) 
Heartbeat CPU 0 instructions: 1670000000 cycles: 1100161817 heartbeat IPC: 1.25065 cumulative IPC: 1.1998 (Simulation time: 2 hr 10 min 45 sec) 
Heartbeat CPU 0 instructions: 1680000003 cycles: 1108252820 heartbeat IPC: 1.23594 cumulative IPC: 1.2001 (Simulation time: 2 hr 11 min 28 sec) 
Heartbeat CPU 0 instructions: 1690000002 cycles: 1116343052 heartbeat IPC: 1.23606 cumulative IPC: 1.20039 (Simulation time: 2 hr 12 min 13 sec) 
Heartbeat CPU 0 instructions: 1700000000 cycles: 1124327845 heartbeat IPC: 1.25238 cumulative IPC: 1.20081 (Simulation time: 2 hr 12 min 57 sec) 
Heartbeat CPU 0 instructions: 1710000000 cycles: 1132350334 heartbeat IPC: 1.2465 cumulative IPC: 1.20117 (Simulation time: 2 hr 13 min 36 sec) 
Heartbeat CPU 0 instructions: 1720000000 cycles: 1140355950 heartbeat IPC: 1.24912 cumulative IPC: 1.20155 (Simulation time: 2 hr 14 min 23 sec) 
Heartbeat CPU 0 instructions: 1730000004 cycles: 1148375148 heartbeat IPC: 1.24701 cumulative IPC: 1.20191 (Simulation time: 2 hr 15 min 4 sec) 
Heartbeat CPU 0 instructions: 1740000002 cycles: 1156763199 heartbeat IPC: 1.19217 cumulative IPC: 1.20183 (Simulation time: 2 hr 15 min 52 sec) 
Heartbeat CPU 0 instructions: 1750000001 cycles: 1165150731 heartbeat IPC: 1.19225 cumulative IPC: 1.20175 (Simulation time: 2 hr 16 min 38 sec) 
Heartbeat CPU 0 instructions: 1760000002 cycles: 1173451602 heartbeat IPC: 1.20469 cumulative IPC: 1.20177 (Simulation time: 2 hr 17 min 20 sec) 
Heartbeat CPU 0 instructions: 1770000004 cycles: 1181711733 heartbeat IPC: 1.21063 cumulative IPC: 1.20184 (Simulation time: 2 hr 18 min 3 sec) 
Heartbeat CPU 0 instructions: 1780000001 cycles: 1189999623 heartbeat IPC: 1.20658 cumulative IPC: 1.20188 (Simulation time: 2 hr 18 min 43 sec) 
Heartbeat CPU 0 instructions: 1790000002 cycles: 1198260907 heartbeat IPC: 1.21047 cumulative IPC: 1.20195 (Simulation time: 2 hr 19 min 29 sec) 
Heartbeat CPU 0 instructions: 1800000001 cycles: 1206542189 heartbeat IPC: 1.20754 cumulative IPC: 1.20199 (Simulation time: 2 hr 20 min 14 sec) 
Heartbeat CPU 0 instructions: 1810000001 cycles: 1214673618 heartbeat IPC: 1.2298 cumulative IPC: 1.2022 (Simulation time: 2 hr 20 min 49 sec) 
Heartbeat CPU 0 instructions: 1820000003 cycles: 1222804022 heartbeat IPC: 1.22995 cumulative IPC: 1.2024 (Simulation time: 2 hr 21 min 28 sec) 
Heartbeat CPU 0 instructions: 1830000001 cycles: 1230997911 heartbeat IPC: 1.22042 cumulative IPC: 1.20254 (Simulation time: 2 hr 22 min 16 sec) 
Heartbeat CPU 0 instructions: 1840000001 cycles: 1239111415 heartbeat IPC: 1.23251 cumulative IPC: 1.20275 (Simulation time: 2 hr 23 min 2 sec) 
Heartbeat CPU 0 instructions: 1850000000 cycles: 1247251584 heartbeat IPC: 1.22848 cumulative IPC: 1.20294 (Simulation time: 2 hr 23 min 46 sec) 
Heartbeat CPU 0 instructions: 1860000000 cycles: 1255390884 heartbeat IPC: 1.22861 cumulative IPC: 1.20313 (Simulation time: 2 hr 24 min 31 sec) 
Heartbeat CPU 0 instructions: 1870000000 cycles: 1263616328 heartbeat IPC: 1.21574 cumulative IPC: 1.20322 (Simulation time: 2 hr 25 min 12 sec) 
Heartbeat CPU 0 instructions: 1880000001 cycles: 1272049072 heartbeat IPC: 1.18585 cumulative IPC: 1.20309 (Simulation time: 2 hr 25 min 56 sec) 
Heartbeat CPU 0 instructions: 1890000004 cycles: 1280434567 heartbeat IPC: 1.19254 cumulative IPC: 1.20301 (Simulation time: 2 hr 26 min 42 sec) 
Heartbeat CPU 0 instructions: 1900000000 cycles: 1288874165 heartbeat IPC: 1.18489 cumulative IPC: 1.20288 (Simulation time: 2 hr 27 min 30 sec) 
Heartbeat CPU 0 instructions: 1910000003 cycles: 1297097687 heartbeat IPC: 1.21602 cumulative IPC: 1.20297 (Simulation time: 2 hr 28 min 13 sec) 
Heartbeat CPU 0 instructions: 1920000002 cycles: 1305334678 heartbeat IPC: 1.21404 cumulative IPC: 1.20305 (Simulation time: 2 hr 29 min 1 sec) 
Heartbeat CPU 0 instructions: 1930000003 cycles: 1313566276 heartbeat IPC: 1.21483 cumulative IPC: 1.20313 (Simulation time: 2 hr 29 min 47 sec) 
Heartbeat CPU 0 instructions: 1940000004 cycles: 1322060284 heartbeat IPC: 1.1773 cumulative IPC: 1.20295 (Simulation time: 2 hr 30 min 15 sec) 
Heartbeat CPU 0 instructions: 1950000000 cycles: 1330647253 heartbeat IPC: 1.16455 cumulative IPC: 1.20268 (Simulation time: 2 hr 30 min 54 sec) 
Heartbeat CPU 0 instructions: 1960000000 cycles: 1339194463 heartbeat IPC: 1.16997 cumulative IPC: 1.20245 (Simulation time: 2 hr 31 min 29 sec) 
Heartbeat CPU 0 instructions: 1970000002 cycles: 1347687432 heartbeat IPC: 1.17744 cumulative IPC: 1.20227 (Simulation time: 2 hr 31 min 58 sec) 
Heartbeat CPU 0 instructions: 1980000000 cycles: 1356196660 heartbeat IPC: 1.17519 cumulative IPC: 1.20208 (Simulation time: 2 hr 32 min 36 sec) 
Heartbeat CPU 0 instructions: 1990000004 cycles: 1364645316 heartbeat IPC: 1.18362 cumulative IPC: 1.20196 (Simulation time: 2 hr 33 min 11 sec) 
*** Reached end of trace: traces/648.exchange2_s-210B.champsimtrace.xz
Heartbeat CPU 0 instructions: 2000000001 cycles: 1373117100 heartbeat IPC: 1.18039 cumulative IPC: 1.20181 (Simulation time: 2 hr 33 min 46 sec) 
Finished CPU 0 instructions: 1500000000 cycles: 1248114783 cumulative IPC: 1.20181 (Simulation time: 2 hr 33 min 46 sec) 

ChampSim completed all CPUs

Region of Interest Statistics

CPU 0 cumulative IPC: 1.20181 instructions: 1500000000 cycles: 1248114783
cpu0_DTLB TOTAL     ACCESS:  237057007  HIT:  237057006  MISS:          1
cpu0_DTLB LOAD      ACCESS:  114646333  HIT:  114646332  MISS:          1
cpu0_DTLB RFO       ACCESS:  122410674  HIT:  122410674  MISS:          0
cpu0_DTLB PREFETCH  ACCESS:          0  HIT:          0  MISS:          0
cpu0_DTLB WRITEBACK ACCESS:          0  HIT:          0  MISS:          0
cpu0_DTLB TRANSLATION ACCESS:          0  HIT:          0  MISS:          0
cpu0_DTLB PREFETCH  REQUESTED:          0  ISSUED:          0  USEFUL:          0  USELESS:          0
cpu0_DTLB AVERAGE MISS LATENCY: 217 cycles
cpu0_ITLB TOTAL     ACCESS:  152455376  HIT:  152455376  MISS:          0
cpu0_ITLB LOAD      ACCESS:  152455376  HIT:  152455376  MISS:          0
cpu0_ITLB RFO       ACCESS:          0  HIT:          0  MISS:          0
cpu0_ITLB PREFETCH  ACCESS:          0  HIT:          0  MISS:          0
cpu0_ITLB WRITEBACK ACCESS:          0  HIT:          0  MISS:          0
cpu0_ITLB TRANSLATION ACCESS:          0  HIT:          0  MISS:          0
cpu0_ITLB PREFETCH  REQUESTED:          0  ISSUED:          0  USEFUL:          0  USELESS:          0
cpu0_ITLB AVERAGE MISS LATENCY: -nan cycles
cpu0_L1I TOTAL     ACCESS:   85754375  HIT:   85734073  MISS:      20302
cpu0_L1I LOAD      ACCESS:   85754375  HIT:   85734073  MISS:      20302
cpu0_L1I RFO       ACCESS:          0  HIT:          0  MISS:          0
cpu0_L1I PREFETCH  ACCESS:          0  HIT:          0  MISS:          0
cpu0_L1I WRITEBACK ACCESS:          0  HIT:          0  MISS:          0
cpu0_L1I TRANSLATION ACCESS:          0  HIT:          0  MISS:          0
cpu0_L1I PREFETCH  REQUESTED:          0  ISSUED:          0  USEFUL:          0  USELESS:          0
cpu0_L1I AVERAGE MISS LATENCY: 11.0993 cycles
cpu0_STLB TOTAL     ACCESS:          1  HIT:          0  MISS:          1
cpu0_STLB LOAD      ACCESS:          1  HIT:          0  MISS:          1
cpu0_STLB RFO       ACCESS:          0  HIT:          0  MISS:          0
cpu0_STLB PREFETCH  ACCESS:          0  HIT:          0  MISS:          0
cpu0_STLB WRITEBACK ACCESS:          0  HIT:          0  MISS:          0
cpu0_STLB TRANSLATION ACCESS:          0  HIT:          0  MISS:          0
cpu0_STLB PREFETCH  REQUESTED:          0  ISSUED:          0  USEFUL:          0  USELESS:          0
cpu0_STLB AVERAGE MISS LATENCY: 208 cycles
cpu0_L1D TOTAL     ACCESS:  448446708  HIT:  448446702  MISS:          6
cpu0_L1D LOAD      ACCESS:  209397773  HIT:  209397767  MISS:          6
cpu0_L1D RFO       ACCESS:  239048934  HIT:  239048934  MISS:          0
cpu0_L1D PREFETCH  ACCESS:          0  HIT:          0  MISS:          0
cpu0_L1D WRITEBACK ACCESS:          0  HIT:          0  MISS:          0
cpu0_L1D TRANSLATION ACCESS:          1  HIT:          1  MISS:          0
cpu0_L1D PREFETCH  REQUESTED:          0  ISSUED:          0  USEFUL:          0  USELESS:          0
cpu0_L1D AVERAGE MISS LATENCY: 194.333 cycles
cpu0_L2C TOTAL     ACCESS:      20308  HIT:      20291  MISS:         17
cpu0_L2C LOAD      ACCESS:      20308  HIT:      20291  MISS:         17
cpu0_L2C RFO       ACCESS:          0  HIT:          0  MISS:          0
cpu0_L2C PREFETCH  ACCESS:          0  HIT:          0  MISS:          0
cpu0_L2C WRITEBACK ACCESS:          0  HIT:          0  MISS:          0
cpu0_L2C TRANSLATION ACCESS:          0  HIT:          0  MISS:          0
cpu0_L2C PREFETCH  REQUESTED:          0  ISSUED:          0  USEFUL:          0  USELESS:          0
cpu0_L2C AVERAGE MISS LATENCY: 183.235 cycles
LLC TOTAL     ACCESS:         17  HIT:          0  MISS:         17
LLC LOAD      ACCESS:         17  HIT:          0  MISS:         17
LLC RFO       ACCESS:          0  HIT:          0  MISS:          0
LLC PREFETCH  ACCESS:          0  HIT:          0  MISS:          0
LLC WRITEBACK ACCESS:          0  HIT:          0  MISS:          0
LLC TRANSLATION ACCESS:          0  HIT:          0  MISS:          0
LLC PREFETCH  REQUESTED:          0  ISSUED:          0  USEFUL:          0  USELESS:          0
LLC AVERAGE MISS LATENCY: 162.235 cycles
~~~~~~~~~~Reuse Distance Profiler output~~~~~~~~~~
0	159173040	30155392
1	69822432	18942784
2	39208976	13087088
3	33177872	11174400
4	21878432	9790176
5	22990352	9528048
6	12695408	5404032
7	11114752	4462960
8	9803936	4596656
9	6255952	3601536
10	5761248	3256000
11	4513520	2665072
12	5534096	3232512
13	6541712	4357584
14	6431904	3345776
15	4190512	2656464
16	4412944	3719632
17	3082736	2098000
18	2639104	2014128
19	2715280	2127024
20	2024768	1640336
21	2167920	1710544
22	1824320	1511872
23	2134368	1763920
24	1665008	1361520
25	1265984	785808
26	1984976	1246096
27	1759968	1330448
28	1145536	888256
29	1152032	626160
30	1019888	758512
31	1196624	930752
32	1763504	1583568
33	1595136	1323184
34	903408	729552
35	1165984	997520
36	1243136	1060864
37	1128208	981088
38	896048	740912
39	1080032	948960
40	1146464	996048
41	1379824	1123824
42	1193072	966272
43	1262368	1100832
44	1052016	815232
45	1306048	1118096
46	1573184	1370912
47	1261616	1051552
48	1386112	1220384
49	1500464	1215136
50	1376720	1181904
51	1110352	910688
52	982688	778288
53	869520	690112
54	931088	723840
55	880960	685424
56	849744	660368
57	1379264	1116656
58	1257712	966784
59	894416	656704
60	831904	643328
61	899264	692704
62	1020832	814624
63	1123376	840928
64	1692272	1255072
66	1903824	1254032
68	1220256	736176
70	1060624	630096
72	1005312	616624
74	1061824	599248
76	1153568	686464
78	1094880	684688
80	943840	518912
82	779376	439728
84	1128848	733920
86	894768	483264
88	983744	516816
90	1000496	515792
92	1132720	648752
94	1181664	667968
96	1208144	726560
98	1086224	610528
100	1063664	583984
102	1020592	585664
104	1393328	945552
106	1197840	729376
108	934336	549472
110	894080	498960
112	920560	496000
114	818304	461344
116	775840	454000
118	663216	419392
120	739072	523104
122	630480	454960
124	599408	446704
126	471952	369152
128	814288	700096
132	1084000	920528
136	1063632	997792
140	961392	932416
144	989088	961056
148	919952	887776
152	820992	781376
156	953952	912560
160	910016	864704
164	1066464	1005600
168	907424	813280
172	926016	797504
176	780304	662368
180	734848	602368
184	823840	738720
188	808800	740848
192	1008848	922016
196	1103472	1003904
200	947104	862672
204	785312	666944
208	670096	553264
212	653104	528096
216	618736	519360
220	697072	574960
224	763072	698128
228	788240	736064
232	793120	743072
236	867552	799984
240	782112	720368
244	745264	693152
248	919264	846192
252	766816	697680
256	1535680	1406160
264	1262736	1166384
272	1235936	1157280
280	1260240	1179216
288	1129392	1034624
296	1045552	928624
304	997808	860496
312	1044912	918192
320	1132528	978000
328	1089120	941472
336	960864	867184
344	805440	730880
352	844960	754720
360	878400	764480
368	923392	792320
376	981648	878832
384	960096	873232
392	833888	757024
400	704720	630048
408	630192	558800
416	670416	593776
424	695360	604720
432	703152	604208
440	635264	528368
448	530896	431040
456	531984	431504
464	569744	443232
472	556912	431824
480	558064	440832
488	512272	437744
496	510032	438256
504	477744	414272
512	907456	777760
528	846144	710544
544	789136	633200
560	709280	567152
576	702160	556832
592	638736	526032
608	594704	485328
624	529296	435872
640	533712	425888
656	483440	380352
672	465648	359392
688	493168	377424
704	395488	308192
720	360944	285136
736	374352	306352
752	351552	286848
768	331152	245792
784	362480	267568
800	358512	274112
816	304816	232256
832	274800	215856
848	290336	229792
864	292896	217920
880	268368	189392
896	262432	186944
912	244784	180128
928	223344	174160
944	215360	167536
960	204192	152608
976	215408	156992
992	225504	159936
1008	210032	158672
1024	373120	294864
1056	339696	255600
1088	345456	252080
1120	286560	216624
1152	274432	201536
1184	285184	209776
1216	246464	185392
1248	228304	169760
1280	249872	184912
1312	221120	166592
1344	193040	145520
1376	181168	131008
1408	182096	133760
1440	155152	114464
1472	155744	117200
1504	153408	115168
1536	143712	107344
1568	135616	100144
1600	133648	101856
1632	116896	88240
1664	118976	91488
1696	105952	81088
1728	108688	85760
1760	98224	75824
1792	105744	82752
1824	95216	73600
1856	98208	77712
1888	93216	74400
1920	90256	71600
1952	83888	66048
1984	78448	60720
2016	81792	63744
2048	148848	114336
2112	146768	112528
2176	126160	96656
2240	129104	101968
2304	121584	96416
2368	114432	91040
2432	109104	82448
2496	106608	83456
2560	95360	75456
2624	93520	74224
2688	92304	72576
2752	91648	70976
2816	86240	67408
2880	77872	61120
2944	73952	59168
3008	68144	54672
3072	63904	50032
3136	63248	49888
3200	59776	48176
3264	57968	45968
3328	58480	46752
3392	55584	43936
3456	57440	46096
3520	52928	41968
3584	48736	38368
3648	46752	36064
3712	44688	34864
3776	44736	34880
3840	42864	33696
3904	40592	31200
3968	37840	28528
4032	36192	27184
4096	72096	55264
4224	64240	49216
4352	59024	44240
4480	57824	43328
4608	52304	39456
4736	49728	36496
4864	47776	34816
4992	42352	30112
5120	42960	30704
5248	41344	28352
5376	39472	27024
5504	35712	23984
5632	35872	24512
5760	33424	23056
5888	30704	20688
6016	29120	19632
6144	29520	19760
6272	28240	19056
6400	27392	18480
6528	25360	16800
6656	23872	16000
6784	22976	15072
6912	21872	13632
7040	19424	12208
7168	18576	12048
7296	17472	11280
7424	16720	10288
7552	15344	9472
7680	14176	8768
7808	13760	8112
7936	13168	7840
8064	13168	7232
8192	25504	14272
8448	24112	12816
8704	21888	12144
8960	20992	11808
9216	18144	10432
9472	16288	9744
9728	14992	8416
9984	14672	8176
10240	14272	7664
10496	14144	7840
10752	12416	6912
11008	12096	6400
11264	11456	6128
11520	10816	5344
11776	10064	5024
12032	11056	5728
12288	9824	4544
12544	8976	3888
12800	8224	3968
13056	8560	3744
13312	7440	3488
13568	7648	3408
13824	8032	3312
14080	7296	3072
14336	7296	2752
14592	6672	2448
14848	7168	2976
15104	6912	2432
15360	6672	2384
15616	6320	2256
15872	5936	2144
16128	5472	2016
16384	11568	3552
16896	9536	3088
17408	9392	2816
17920	8480	2320
18432	7872	2208
18944	7424	2224
19456	7168	1936
19968	7216	2128
20480	8000	2048
20992	7056	1872
21504	6592	1664
22016	5424	1136
22528	5440	1264
23040	5312	1056
23552	4528	976
24064	5088	928
24576	4704	896
25088	4352	832
25600	4048	848
26112	4016	560
26624	3776	1040
27136	3968	752
27648	3536	528
28160	3456	576
28672	3536	752
29184	3408	624
29696	2928	576
30208	3296	608
30720	2800	432
31232	3088	576
31744	2800	464
32256	2880	560
32768	5328	1104
33792	5680	1024
34816	5888	1088
35840	5824	832
36864	5024	752
37888	4768	1088
38912	4976	1392
39936	5152	992
40960	4592	960
41984	4496	832
43008	4464	624
44032	3872	752
45056	3968	624
46080	4608	640
47104	3504	592
48128	3280	672
49152	3552	704
50176	3440	576
51200	4016	720
52224	3136	384
53248	3312	496
54272	3104	432
55296	3456	704
56320	4016	496
57344	3328	608
58368	2848	512
59392	3200	720
60416	3040	592
61440	3136	608
62464	2608	496
63488	2768	544
64512	2480	464
65536	5104	960
67584	5168	1056
69632	5344	1200
71680	4976	1120
73728	4272	896
75776	4656	1200
77824	3392	1072
79872	3952	1056
81920	4160	992
83968	3408	880
86016	3232	672
88064	3648	944
90112	3472	800
92160	3088	768
94208	2624	720
96256	1888	592
98304	2240	608
100352	2720	720
102400	2256	624
104448	2352	656
106496	1744	608
108544	1632	400
110592	2288	800
112640	1744	528
114688	1616	592
116736	1856	512
118784	1312	480
120832	1712	384
122880	1568	576
124928	1680	592
126976	1440	496
129024	1488	416
131072	2256	784
135168	2160	608
139264	1680	752
143360	1776	784
147456	1936	992
151552	1584	736
155648	1680	624
159744	1808	640
163840	1200	416
167936	1136	528
172032	1120	464
176128	896	320
180224	1040	512
184320	1200	400
188416	704	336
192512	736	304
196608	576	288
200704	592	192
204800	864	464
208896	752	496
212992	688	400
217088	688	416
221184	496	256
225280	688	400
229376	688	304
233472	624	320
237568	832	592
241664	752	480
245760	640	384
249856	592	384
253952	528	224
258048	560	400
262144	944	464
270336	816	400
278528	704	400
286720	944	560
294912	960	432
303104	960	608
311296	1184	592
319488	864	544
327680	672	384
335872	672	240
344064	656	272
352256	688	448
360448	736	288
368640	976	416
376832	480	272
385024	432	288
393216	608	448
401408	480	304
409600	352	272
417792	672	544
425984	432	272
434176	304	144
442368	400	320
450560	288	240
458752	432	176
466944	592	416
475136	464	336
483328	320	240
491520	288	256
499712	224	176
507904	352	304
516096	304	208
524288	672	352
540672	544	400
557056	384	304
573440	544	448
589824	592	368
606208	352	256
622592	288	176
638976	304	272
655360	352	288
671744	352	224
688128	352	336
704512	384	208
720896	240	240
737280	304	256
753664	160	128
770048	176	176
786432	336	320
802816	160	112
819200	176	128
835584	160	144
851968	176	176
868352	144	112
884736	256	144
901120	80	48
917504	48	48
933888	144	80
950272	128	96
966656	96	64
983040	112	112
999424	64	64
1015808	48	48
1032192	32	32
1048576	112	96
1081344	112	48
1114112	112	112
1146880	128	16
1179648	96	64
1212416	160	96
1245184	128	80
1277952	0	0
1310720	16	16
1343488	80	32
1376256	128	96
1409024	96	64
1441792	144	96
1474560	80	64
1507328	32	32
1540096	32	16
1572864	64	64
1605632	96	80
1638400	80	48
1671168	48	48
1703936	64	32
1736704	16	16
1769472	64	64
1802240	16	16
1835008	32	16
1867776	0	0
1900544	16	0
1933312	32	32
1966080	48	32
1998848	48	48
2031616	48	32
2064384	80	80
2097152	32	32
2162688	144	112
2228224	64	32
2293760	32	32
2359296	16	0
2424832	48	16
2490368	112	96
2555904	112	64
2621440	64	16
2686976	32	16
2752512	0	0
2818048	48	48
2883584	32	16
2949120	80	32
3014656	32	32
3080192	0	0
3145728	32	16
3211264	32	16
3276800	48	0
3342336	16	16
3407872	0	0
3473408	32	32
3538944	0	0
3604480	16	16
3670016	32	32
3735552	0	0
3801088	32	32
3866624	0	0
3932160	112	112
3997696	16	16
4063232	32	32
4128768	16	16
4194304	96	80
4325376	32	32
4456448	32	32
4587520	80	32
4718592	32	16
4849664	80	80
4980736	32	32
5111808	48	48
5242880	64	0
5373952	32	16
5505024	16	16
5636096	0	0
5767168	0	0
5898240	16	16
6029312	0	0
6160384	32	32
6291456	0	0
6422528	0	0
6553600	0	0
6684672	16	16
6815744	0	0
6946816	0	0
7077888	16	16
7208960	16	16
7340032	0	0
7471104	16	0
7602176	48	16
7733248	0	0
7864320	0	0
7995392	0	0
8126464	0	0
8257536	0	0
8388608	0	0
8650752	0	0
8912896	16	16
9175040	16	16
9437184	32	16
9699328	0	0
9961472	64	16
10223616	16	16
10485760	16	16
10747904	96	64
11010048	32	0
11272192	16	16
11534336	0	0
11796480	16	0
12058624	0	0
12320768	0	0
12582912	0	0
12845056	16	16
13107200	0	0
13369344	0	0
13631488	0	0
13893632	0	0
14155776	32	32
14417920	48	16
14680064	0	0
14942208	48	32
15204352	16	0
15466496	0	0
15728640	0	0
15990784	16	16
16252928	48	16
16515072	80	48
16777216	80	32
17301504	0	0
17825792	32	0
18350080	80	0
18874368	0	0
19398656	128	96
19922944	48	16
20447232	0	0
20971520	0	0
21495808	0	0
22020096	112	32
22544384	0	0
23068672	0	0
23592960	0	0
24117248	0	0
24641536	0	0
25165824	0	0
25690112	0	0
26214400	0	0
26738688	0	0
27262976	32	32
27787264	0	0
28311552	16	0
28835840	0	0
29360128	0	0
29884416	0	0
30408704	0	0
30932992	0	0
31457280	0	0
31981568	0	0
32505856	0	0
33030144	0	0
33554432	0	0
34603008	0	0
35651584	0	0
36700160	0	0
37748736	0	0
38797312	96	48
39845888	0	0
40894464	0	0
41943040	0	0
42991616	0	0
44040192	0	0
45088768	0	0
46137344	0	0
47185920	0	0
48234496	128	64
49283072	0	0
50331648	80	64
51380224	0	0
52428800	0	0
53477376	0	0
54525952	48	32
55574528	16	16
56623104	0	0
57671680	0	0
58720256	0	0
59768832	0	0
60817408	0	0
61865984	0	0
62914560	0	0
63963136	0	0
65011712	0	0
66060288	0	0
67108864	0	0
69206016	0	0
71303168	16	16
73400320	0	0
75497472	0	0
77594624	0	0
79691776	0	0
81788928	0	0
83886080	0	0
85983232	0	0
88080384	0	0
90177536	0	0
92274688	0	0
94371840	80	32
96468992	0	0
98566144	0	0
100663296	0	0
102760448	0	0
104857600	0	0
106954752	0	0
109051904	0	0
111149056	0	0
113246208	0	0
115343360	0	0
117440512	0	0
119537664	0	0
121634816	0	0
123731968	0	0
125829120	0	0
127926272	0	0
130023424	0	0
132120576	0	0
134217728	0	0
138412032	0	0
142606336	0	0
146800640	0	0
150994944	0	0
155189248	0	0
159383552	0	0
163577856	0	0
167772160	0	0
171966464	0	0
176160768	16	0
180355072	0	0
184549376	0	0
188743680	0	0
192937984	0	0
197132288	0	0
201326592	0	0
205520896	0	0
209715200	0	0
213909504	0	0
218103808	0	0
222298112	0	0
226492416	0	0
230686720	0	0
234881024	0	0
239075328	0	0
243269632	0	0
247463936	0	0
251658240	0	0
255852544	0	0
260046848	0	0
264241152	0	0
268435456	0	0
276824064	0	0
285212672	0	0
293601280	0	0
301989888	0	0
310378496	0	0
318767104	0	0
327155712	0	0
335544320	0	0
343932928	0	0
352321536	0	0
360710144	0	0
369098752	0	0
377487360	0	0
385875968	0	0
394264576	0	0
402653184	0	0
411041792	0	0
419430400	0	0
427819008	0	0
436207616	0	0
444596224	0	0
452984832	0	0
461373440	0	0
469762048	0	0
478150656	0	0
486539264	0	0
494927872	0	0
503316480	0	0
511705088	0	0
520093696	0	0
528482304	0	0
536870912	0	0
553648128	0	0
570425344	0	0
587202560	0	0
603979776	0	0
620756992	0	0
637534208	0	0
654311424	0	0
671088640	0	0
687865856	0	0
704643072	0	0
721420288	0	0
738197504	0	0
754974720	0	0
771751936	0	0
788529152	0	0
805306368	0	0
822083584	0	0
838860800	0	0
855638016	0	0
872415232	0	0
889192448	0	0
905969664	0	0
922746880	0	0
939524096	0	0
956301312	0	0
973078528	0	0
989855744	0	0
1006632960	0	0
1023410176	0	0
1040187392	0	0
1056964608	0	0
1073741824	0	0
1107296256	0	0
1140850688	0	0
1174405120	0	0
1207959552	0	0
1241513984	0	0
1275068416	0	0
1308622848	0	0
1342177280	0	0
1375731712	0	0
1409286144	0	0
1442840576	0	0
1476395008	0	0
1509949440	0	0
1543503872	0	0
1577058304	0	0
1610612736	0	0
1644167168	0	0
1677721600	0	0
1711276032	0	0
1744830464	0	0
1778384896	0	0
1811939328	0	0
1845493760	0	0
1879048192	0	0
1912602624	0	0
1946157056	0	0
1979711488	0	0
2013265920	0	0
2046820352	0	0
2080374784	0	0
2113929216	0	0
2147483648	0	0
2214592512	0	0
2281701376	0	0
2348810240	0	0
2415919104	0	0
2483027968	0	0
2550136832	0	0
2617245696	0	0
2684354560	0	0
2751463424	0	0
2818572288	0	0
2885681152	0	0
2952790016	0	0
3019898880	0	0
3087007744	0	0
3154116608	0	0
3221225472	0	0
3288334336	0	0
3355443200	0	0
3422552064	0	0
3489660928	0	0
3556769792	0	0
3623878656	0	0
3690987520	0	0
3758096384	0	0
3825205248	0	0
3892314112	0	0
3959422976	0	0
4026531840	0	0
4093640704	0	0
4160749568	0	0
4227858432	0	0
~~~~~~~~~~Reuse Distance Profiler output end~~~~~~~~~~

DRAM Statistics
 CHANNEL 0
 RQ ROW_BUFFER_HIT:          0  ROW_BUFFER_MISS:         17
 DBUS AVG_CONGESTED_CYCLE: -
 WQ ROW_BUFFER_HIT:          0  ROW_BUFFER_MISS:          0  FULL:          0


CPU 0 Branch Prediction Accuracy: 75.1474% MPKI: 33.823 Average ROB Occupancy at Mispredict: 13.2008
Branch type MPKI
BRANCH_DIRECT_JUMP: 3.33333e-06
BRANCH_INDIRECT: 0
BRANCH_CONDITIONAL: 33.823
BRANCH_DIRECT_CALL: 0
BRANCH_INDIRECT_CALL: 0
BRANCH_RETURN: 0

