
*** ChampSim Multicore Out-of-Order Simulator ***

Warmup Instructions: 500000000
Simulation Instructions: 1500000000
Number of CPUs: 1
Off-chip DRAM Size: 4 GiB Channels: 1 Width: 64-bit Data Rate: 3200 MT/s

VirtualMemory physical capacity: 8588881920 num_ppages: 2096895
VirtualMemory page size: 4096 log2_page_size: 12

CPU 0 runs traces/649.fotonik3d_s-1176B.champsimtrace.xz
CPU 0 Bimodal branch predictor
Basic BTB sets: 1024 ways: 8 indirect buffer size: 4096 RAS size: 64
Initializing LRU.
Initializing LRU.
Initializing LRU.
Initializing LRU.
Initializing rdLRU.
Initializing LRU.
Initializing LRU.
Heartbeat CPU 0 instructions: 10000001 cycles: 3507808 heartbeat IPC: 2.85078 cumulative IPC: 2.85078 (Simulation time: 0 hr 1 min 22 sec) 
Heartbeat CPU 0 instructions: 20000001 cycles: 7015495 heartbeat IPC: 2.85088 cumulative IPC: 2.85083 (Simulation time: 0 hr 2 min 42 sec) 
Heartbeat CPU 0 instructions: 30000000 cycles: 10523177 heartbeat IPC: 2.85089 cumulative IPC: 2.85085 (Simulation time: 0 hr 4 min 7 sec) 
Heartbeat CPU 0 instructions: 40000000 cycles: 14030864 heartbeat IPC: 2.85088 cumulative IPC: 2.85086 (Simulation time: 0 hr 5 min 30 sec) 
Heartbeat CPU 0 instructions: 50000004 cycles: 17538547 heartbeat IPC: 2.85089 cumulative IPC: 2.85086 (Simulation time: 0 hr 6 min 52 sec) 
Heartbeat CPU 0 instructions: 60000003 cycles: 21046287 heartbeat IPC: 2.85084 cumulative IPC: 2.85086 (Simulation time: 0 hr 8 min 17 sec) 
Heartbeat CPU 0 instructions: 70000004 cycles: 24553967 heartbeat IPC: 2.85089 cumulative IPC: 2.85086 (Simulation time: 0 hr 9 min 37 sec) 
Heartbeat CPU 0 instructions: 80000002 cycles: 28061653 heartbeat IPC: 2.85088 cumulative IPC: 2.85087 (Simulation time: 0 hr 10 min 54 sec) 
Heartbeat CPU 0 instructions: 90000000 cycles: 31569336 heartbeat IPC: 2.85088 cumulative IPC: 2.85087 (Simulation time: 0 hr 12 min 20 sec) 
Heartbeat CPU 0 instructions: 100000001 cycles: 35077023 heartbeat IPC: 2.85088 cumulative IPC: 2.85087 (Simulation time: 0 hr 13 min 36 sec) 
Heartbeat CPU 0 instructions: 110000000 cycles: 38584707 heartbeat IPC: 2.85088 cumulative IPC: 2.85087 (Simulation time: 0 hr 15 min 0 sec) 
Heartbeat CPU 0 instructions: 120000001 cycles: 42092395 heartbeat IPC: 2.85088 cumulative IPC: 2.85087 (Simulation time: 0 hr 16 min 27 sec) 
Heartbeat CPU 0 instructions: 130000003 cycles: 45600081 heartbeat IPC: 2.85088 cumulative IPC: 2.85087 (Simulation time: 0 hr 17 min 46 sec) 
Heartbeat CPU 0 instructions: 140000000 cycles: 49107765 heartbeat IPC: 2.85088 cumulative IPC: 2.85087 (Simulation time: 0 hr 19 min 4 sec) 
Heartbeat CPU 0 instructions: 150000003 cycles: 52615450 heartbeat IPC: 2.85088 cumulative IPC: 2.85087 (Simulation time: 0 hr 20 min 21 sec) 
Heartbeat CPU 0 instructions: 160000002 cycles: 56123138 heartbeat IPC: 2.85088 cumulative IPC: 2.85087 (Simulation time: 0 hr 21 min 45 sec) 
Heartbeat CPU 0 instructions: 170000000 cycles: 59630869 heartbeat IPC: 2.85085 cumulative IPC: 2.85087 (Simulation time: 0 hr 23 min 9 sec) 
Heartbeat CPU 0 instructions: 180000000 cycles: 63138557 heartbeat IPC: 2.85088 cumulative IPC: 2.85087 (Simulation time: 0 hr 24 min 28 sec) 
Heartbeat CPU 0 instructions: 190000004 cycles: 66646239 heartbeat IPC: 2.85089 cumulative IPC: 2.85087 (Simulation time: 0 hr 25 min 44 sec) 
Heartbeat CPU 0 instructions: 200000004 cycles: 70153927 heartbeat IPC: 2.85088 cumulative IPC: 2.85087 (Simulation time: 0 hr 27 min 5 sec) 
Heartbeat CPU 0 instructions: 210000000 cycles: 73661608 heartbeat IPC: 2.85089 cumulative IPC: 2.85087 (Simulation time: 0 hr 28 min 31 sec) 
Heartbeat CPU 0 instructions: 220000002 cycles: 77169291 heartbeat IPC: 2.85089 cumulative IPC: 2.85087 (Simulation time: 0 hr 29 min 50 sec) 
Heartbeat CPU 0 instructions: 230000002 cycles: 80676978 heartbeat IPC: 2.85088 cumulative IPC: 2.85088 (Simulation time: 0 hr 31 min 13 sec) 
Heartbeat CPU 0 instructions: 240000000 cycles: 84184660 heartbeat IPC: 2.85088 cumulative IPC: 2.85088 (Simulation time: 0 hr 32 min 32 sec) 
Heartbeat CPU 0 instructions: 250000004 cycles: 87692348 heartbeat IPC: 2.85088 cumulative IPC: 2.85088 (Simulation time: 0 hr 33 min 55 sec) 
Heartbeat CPU 0 instructions: 260000002 cycles: 91200036 heartbeat IPC: 2.85088 cumulative IPC: 2.85088 (Simulation time: 0 hr 35 min 17 sec) 
Heartbeat CPU 0 instructions: 270000001 cycles: 94570365 heartbeat IPC: 2.96707 cumulative IPC: 2.85502 (Simulation time: 0 hr 36 min 41 sec) 
Heartbeat CPU 0 instructions: 280000003 cycles: 97860665 heartbeat IPC: 3.03924 cumulative IPC: 2.86121 (Simulation time: 0 hr 37 min 57 sec) 
Heartbeat CPU 0 instructions: 290000002 cycles: 101368402 heartbeat IPC: 2.85084 cumulative IPC: 2.86085 (Simulation time: 0 hr 39 min 14 sec) 
Heartbeat CPU 0 instructions: 300000001 cycles: 104876084 heartbeat IPC: 2.85089 cumulative IPC: 2.86052 (Simulation time: 0 hr 40 min 35 sec) 
Heartbeat CPU 0 instructions: 310000001 cycles: 108383772 heartbeat IPC: 2.85088 cumulative IPC: 2.86021 (Simulation time: 0 hr 41 min 54 sec) 
Heartbeat CPU 0 instructions: 320000001 cycles: 111891453 heartbeat IPC: 2.85089 cumulative IPC: 2.85991 (Simulation time: 0 hr 43 min 11 sec) 
Heartbeat CPU 0 instructions: 330000000 cycles: 115399140 heartbeat IPC: 2.85088 cumulative IPC: 2.85964 (Simulation time: 0 hr 44 min 35 sec) 
Heartbeat CPU 0 instructions: 340000000 cycles: 118906823 heartbeat IPC: 2.85088 cumulative IPC: 2.85938 (Simulation time: 0 hr 45 min 54 sec) 
Heartbeat CPU 0 instructions: 350000001 cycles: 122414509 heartbeat IPC: 2.85088 cumulative IPC: 2.85914 (Simulation time: 0 hr 47 min 1 sec) 
Heartbeat CPU 0 instructions: 360000003 cycles: 125922194 heartbeat IPC: 2.85088 cumulative IPC: 2.85891 (Simulation time: 0 hr 48 min 16 sec) 
Heartbeat CPU 0 instructions: 370000002 cycles: 129429882 heartbeat IPC: 2.85088 cumulative IPC: 2.85869 (Simulation time: 0 hr 49 min 35 sec) 
Heartbeat CPU 0 instructions: 380000001 cycles: 132937568 heartbeat IPC: 2.85088 cumulative IPC: 2.85848 (Simulation time: 0 hr 50 min 55 sec) 
Heartbeat CPU 0 instructions: 390000001 cycles: 136445252 heartbeat IPC: 2.85088 cumulative IPC: 2.85829 (Simulation time: 0 hr 52 min 7 sec) 
Heartbeat CPU 0 instructions: 400000000 cycles: 139952983 heartbeat IPC: 2.85085 cumulative IPC: 2.8581 (Simulation time: 0 hr 53 min 7 sec) 
Heartbeat CPU 0 instructions: 410000001 cycles: 143460670 heartbeat IPC: 2.85088 cumulative IPC: 2.85793 (Simulation time: 0 hr 54 min 22 sec) 
Heartbeat CPU 0 instructions: 420000003 cycles: 146968357 heartbeat IPC: 2.85088 cumulative IPC: 2.85776 (Simulation time: 0 hr 55 min 25 sec) 
Heartbeat CPU 0 instructions: 430000000 cycles: 150476040 heartbeat IPC: 2.85088 cumulative IPC: 2.8576 (Simulation time: 0 hr 56 min 45 sec) 
Heartbeat CPU 0 instructions: 440000002 cycles: 153983726 heartbeat IPC: 2.85088 cumulative IPC: 2.85744 (Simulation time: 0 hr 58 min 9 sec) 
Heartbeat CPU 0 instructions: 450000002 cycles: 157491413 heartbeat IPC: 2.85088 cumulative IPC: 2.8573 (Simulation time: 0 hr 59 min 33 sec) 
Heartbeat CPU 0 instructions: 460000001 cycles: 160999096 heartbeat IPC: 2.85088 cumulative IPC: 2.85716 (Simulation time: 1 hr 0 min 58 sec) 
Heartbeat CPU 0 instructions: 470000001 cycles: 164506779 heartbeat IPC: 2.85088 cumulative IPC: 2.85703 (Simulation time: 1 hr 2 min 16 sec) 
Heartbeat CPU 0 instructions: 480000000 cycles: 168014465 heartbeat IPC: 2.85088 cumulative IPC: 2.8569 (Simulation time: 1 hr 3 min 25 sec) 
Heartbeat CPU 0 instructions: 490000004 cycles: 171522148 heartbeat IPC: 2.85089 cumulative IPC: 2.85677 (Simulation time: 1 hr 4 min 39 sec) 
Heartbeat CPU 0 instructions: 500000002 cycles: 175029835 heartbeat IPC: 2.85088 cumulative IPC: 2.85666 (Simulation time: 1 hr 6 min 1 sec) 

Warmup complete CPU 0 instructions: 500000002 cycles: 175029835 (Simulation time: 1 hr 6 min 1 sec) 

Heartbeat CPU 0 instructions: 510000002 cycles: 183779980 heartbeat IPC: 1.14284 cumulative IPC: 1.14284 (Simulation time: 1 hr 8 min 28 sec) 
Heartbeat CPU 0 instructions: 520000000 cycles: 192542377 heartbeat IPC: 1.14124 cumulative IPC: 1.14204 (Simulation time: 1 hr 10 min 52 sec) 
Heartbeat CPU 0 instructions: 530000001 cycles: 201288242 heartbeat IPC: 1.1434 cumulative IPC: 1.14249 (Simulation time: 1 hr 13 min 27 sec) 
Heartbeat CPU 0 instructions: 540000003 cycles: 210078381 heartbeat IPC: 1.13764 cumulative IPC: 1.14127 (Simulation time: 1 hr 15 min 45 sec) 
Heartbeat CPU 0 instructions: 550000003 cycles: 218855458 heartbeat IPC: 1.13933 cumulative IPC: 1.14089 (Simulation time: 1 hr 17 min 49 sec) 
Heartbeat CPU 0 instructions: 560000000 cycles: 227618807 heartbeat IPC: 1.14112 cumulative IPC: 1.14092 (Simulation time: 1 hr 20 min 1 sec) 
Heartbeat CPU 0 instructions: 570000004 cycles: 236479928 heartbeat IPC: 1.12853 cumulative IPC: 1.13914 (Simulation time: 1 hr 22 min 27 sec) 
Heartbeat CPU 0 instructions: 580000002 cycles: 245254805 heartbeat IPC: 1.13962 cumulative IPC: 1.1392 (Simulation time: 1 hr 24 min 37 sec) 
Heartbeat CPU 0 instructions: 590000000 cycles: 254048819 heartbeat IPC: 1.13714 cumulative IPC: 1.13897 (Simulation time: 1 hr 26 min 53 sec) 
Heartbeat CPU 0 instructions: 600000001 cycles: 262929025 heartbeat IPC: 1.1261 cumulative IPC: 1.13767 (Simulation time: 1 hr 29 min 30 sec) 
Heartbeat CPU 0 instructions: 610000002 cycles: 271752050 heartbeat IPC: 1.1334 cumulative IPC: 1.13728 (Simulation time: 1 hr 32 min 10 sec) 
Heartbeat CPU 0 instructions: 620000002 cycles: 280509989 heartbeat IPC: 1.14182 cumulative IPC: 1.13765 (Simulation time: 1 hr 34 min 44 sec) 
Heartbeat CPU 0 instructions: 630000003 cycles: 289253012 heartbeat IPC: 1.14377 cumulative IPC: 1.13812 (Simulation time: 1 hr 37 min 2 sec) 
Heartbeat CPU 0 instructions: 640000001 cycles: 298073353 heartbeat IPC: 1.13374 cumulative IPC: 1.13781 (Simulation time: 1 hr 38 min 46 sec) 
Heartbeat CPU 0 instructions: 650000002 cycles: 306847569 heartbeat IPC: 1.1397 cumulative IPC: 1.13793 (Simulation time: 1 hr 41 min 6 sec) 
Heartbeat CPU 0 instructions: 660000001 cycles: 315638281 heartbeat IPC: 1.13756 cumulative IPC: 1.13791 (Simulation time: 1 hr 43 min 19 sec) 
Heartbeat CPU 0 instructions: 670000002 cycles: 324480123 heartbeat IPC: 1.13099 cumulative IPC: 1.1375 (Simulation time: 1 hr 45 min 38 sec) 
Heartbeat CPU 0 instructions: 680000000 cycles: 333216991 heartbeat IPC: 1.14457 cumulative IPC: 1.13789 (Simulation time: 1 hr 47 min 38 sec) 
Heartbeat CPU 0 instructions: 690000000 cycles: 341981522 heartbeat IPC: 1.14096 cumulative IPC: 1.13805 (Simulation time: 1 hr 50 min 7 sec) 
Heartbeat CPU 0 instructions: 700000003 cycles: 350744138 heartbeat IPC: 1.14121 cumulative IPC: 1.13821 (Simulation time: 1 hr 52 min 35 sec) 
Heartbeat CPU 0 instructions: 710000004 cycles: 359433222 heartbeat IPC: 1.15087 cumulative IPC: 1.13881 (Simulation time: 1 hr 55 min 13 sec) 
Heartbeat CPU 0 instructions: 720000000 cycles: 368313259 heartbeat IPC: 1.12612 cumulative IPC: 1.13822 (Simulation time: 1 hr 57 min 24 sec) 
Heartbeat CPU 0 instructions: 730000000 cycles: 377117320 heartbeat IPC: 1.13584 cumulative IPC: 1.13812 (Simulation time: 1 hr 59 min 30 sec) 
Heartbeat CPU 0 instructions: 740000000 cycles: 385888538 heartbeat IPC: 1.14009 cumulative IPC: 1.1382 (Simulation time: 2 hr 1 min 31 sec) 
Heartbeat CPU 0 instructions: 750000002 cycles: 394686491 heartbeat IPC: 1.13663 cumulative IPC: 1.13814 (Simulation time: 2 hr 3 min 25 sec) 
Heartbeat CPU 0 instructions: 760000004 cycles: 403498905 heartbeat IPC: 1.13476 cumulative IPC: 1.13801 (Simulation time: 2 hr 5 min 40 sec) 
Heartbeat CPU 0 instructions: 770000004 cycles: 412231932 heartbeat IPC: 1.14508 cumulative IPC: 1.13827 (Simulation time: 2 hr 7 min 33 sec) 
Heartbeat CPU 0 instructions: 780000002 cycles: 421000809 heartbeat IPC: 1.1404 cumulative IPC: 1.13835 (Simulation time: 2 hr 10 min 0 sec) 
Heartbeat CPU 0 instructions: 790000002 cycles: 429842634 heartbeat IPC: 1.13099 cumulative IPC: 1.13809 (Simulation time: 2 hr 12 min 19 sec) 
Heartbeat CPU 0 instructions: 800000002 cycles: 438647317 heartbeat IPC: 1.13576 cumulative IPC: 1.13801 (Simulation time: 2 hr 14 min 51 sec) 
Heartbeat CPU 0 instructions: 810000000 cycles: 447494151 heartbeat IPC: 1.13035 cumulative IPC: 1.13776 (Simulation time: 2 hr 17 min 4 sec) 
Heartbeat CPU 0 instructions: 820000002 cycles: 456325911 heartbeat IPC: 1.13228 cumulative IPC: 1.13759 (Simulation time: 2 hr 19 min 8 sec) 
Heartbeat CPU 0 instructions: 830000001 cycles: 465067983 heartbeat IPC: 1.14389 cumulative IPC: 1.13778 (Simulation time: 2 hr 21 min 41 sec) 
Heartbeat CPU 0 instructions: 840000001 cycles: 473783047 heartbeat IPC: 1.14744 cumulative IPC: 1.13806 (Simulation time: 2 hr 23 min 55 sec) 
Heartbeat CPU 0 instructions: 850000003 cycles: 482559187 heartbeat IPC: 1.13945 cumulative IPC: 1.1381 (Simulation time: 2 hr 26 min 9 sec) 
Heartbeat CPU 0 instructions: 860000000 cycles: 491371910 heartbeat IPC: 1.13472 cumulative IPC: 1.13801 (Simulation time: 2 hr 28 min 15 sec) 
Heartbeat CPU 0 instructions: 870000003 cycles: 500208792 heartbeat IPC: 1.13162 cumulative IPC: 1.13784 (Simulation time: 2 hr 29 min 45 sec) 
Heartbeat CPU 0 instructions: 880000003 cycles: 508984108 heartbeat IPC: 1.13956 cumulative IPC: 1.13788 (Simulation time: 2 hr 31 min 57 sec) 
Heartbeat CPU 0 instructions: 890000000 cycles: 517704330 heartbeat IPC: 1.14676 cumulative IPC: 1.13811 (Simulation time: 2 hr 33 min 53 sec) 
Heartbeat CPU 0 instructions: 900000001 cycles: 526413386 heartbeat IPC: 1.14823 cumulative IPC: 1.13836 (Simulation time: 2 hr 35 min 24 sec) 
Heartbeat CPU 0 instructions: 910000002 cycles: 535220769 heartbeat IPC: 1.13541 cumulative IPC: 1.13829 (Simulation time: 2 hr 36 min 49 sec) 
Heartbeat CPU 0 instructions: 920000004 cycles: 544038918 heartbeat IPC: 1.13403 cumulative IPC: 1.13818 (Simulation time: 2 hr 38 min 14 sec) 
Heartbeat CPU 0 instructions: 930000000 cycles: 552872039 heartbeat IPC: 1.1321 cumulative IPC: 1.13804 (Simulation time: 2 hr 39 min 38 sec) 
Heartbeat CPU 0 instructions: 940000004 cycles: 561673646 heartbeat IPC: 1.13616 cumulative IPC: 1.138 (Simulation time: 2 hr 41 min 3 sec) 
Heartbeat CPU 0 instructions: 950000000 cycles: 570447843 heartbeat IPC: 1.1397 cumulative IPC: 1.13804 (Simulation time: 2 hr 42 min 28 sec) 
Heartbeat CPU 0 instructions: 960000001 cycles: 579345908 heartbeat IPC: 1.12384 cumulative IPC: 1.13772 (Simulation time: 2 hr 43 min 54 sec) 
Heartbeat CPU 0 instructions: 970000004 cycles: 588147453 heartbeat IPC: 1.13616 cumulative IPC: 1.13769 (Simulation time: 2 hr 45 min 20 sec) 
Heartbeat CPU 0 instructions: 980000000 cycles: 596958562 heartbeat IPC: 1.13493 cumulative IPC: 1.13763 (Simulation time: 2 hr 46 min 46 sec) 
Heartbeat CPU 0 instructions: 990000001 cycles: 605722967 heartbeat IPC: 1.14098 cumulative IPC: 1.1377 (Simulation time: 2 hr 48 min 12 sec) 
Heartbeat CPU 0 instructions: 1000000002 cycles: 614441718 heartbeat IPC: 1.14695 cumulative IPC: 1.13788 (Simulation time: 2 hr 49 min 37 sec) 
Heartbeat CPU 0 instructions: 1010000004 cycles: 623227861 heartbeat IPC: 1.13816 cumulative IPC: 1.13789 (Simulation time: 2 hr 51 min 1 sec) 
Heartbeat CPU 0 instructions: 1020000001 cycles: 631927511 heartbeat IPC: 1.14947 cumulative IPC: 1.13811 (Simulation time: 2 hr 52 min 24 sec) 
Heartbeat CPU 0 instructions: 1030000002 cycles: 640753972 heartbeat IPC: 1.13296 cumulative IPC: 1.13801 (Simulation time: 2 hr 53 min 47 sec) 
Heartbeat CPU 0 instructions: 1040000002 cycles: 649520630 heartbeat IPC: 1.14069 cumulative IPC: 1.13806 (Simulation time: 2 hr 55 min 11 sec) 
Heartbeat CPU 0 instructions: 1050000002 cycles: 658266670 heartbeat IPC: 1.14337 cumulative IPC: 1.13816 (Simulation time: 2 hr 56 min 35 sec) 
Heartbeat CPU 0 instructions: 1060000004 cycles: 667074059 heartbeat IPC: 1.13541 cumulative IPC: 1.13811 (Simulation time: 2 hr 57 min 59 sec) 
Heartbeat CPU 0 instructions: 1070000000 cycles: 675890331 heartbeat IPC: 1.13427 cumulative IPC: 1.13804 (Simulation time: 2 hr 59 min 22 sec) 
Heartbeat CPU 0 instructions: 1080000002 cycles: 684721644 heartbeat IPC: 1.13233 cumulative IPC: 1.13794 (Simulation time: 3 hr 0 min 46 sec) 
Heartbeat CPU 0 instructions: 1090000002 cycles: 693478805 heartbeat IPC: 1.14192 cumulative IPC: 1.13801 (Simulation time: 3 hr 2 min 9 sec) 
Heartbeat CPU 0 instructions: 1100000001 cycles: 702268735 heartbeat IPC: 1.13767 cumulative IPC: 1.138 (Simulation time: 3 hr 3 min 32 sec) 
Heartbeat CPU 0 instructions: 1110000000 cycles: 711066879 heartbeat IPC: 1.1366 cumulative IPC: 1.13798 (Simulation time: 3 hr 4 min 57 sec) 
Heartbeat CPU 0 instructions: 1120000001 cycles: 719837817 heartbeat IPC: 1.14013 cumulative IPC: 1.13802 (Simulation time: 3 hr 6 min 21 sec) 
Heartbeat CPU 0 instructions: 1130000004 cycles: 728659978 heartbeat IPC: 1.13351 cumulative IPC: 1.13794 (Simulation time: 3 hr 7 min 46 sec) 
Heartbeat CPU 0 instructions: 1140000004 cycles: 737440280 heartbeat IPC: 1.13891 cumulative IPC: 1.13796 (Simulation time: 3 hr 9 min 10 sec) 
Heartbeat CPU 0 instructions: 1150000000 cycles: 746155606 heartbeat IPC: 1.1474 cumulative IPC: 1.1381 (Simulation time: 3 hr 10 min 33 sec) 
Heartbeat CPU 0 instructions: 1160000001 cycles: 754991689 heartbeat IPC: 1.13172 cumulative IPC: 1.13801 (Simulation time: 3 hr 11 min 58 sec) 
Heartbeat CPU 0 instructions: 1170000002 cycles: 763836328 heartbeat IPC: 1.13063 cumulative IPC: 1.1379 (Simulation time: 3 hr 13 min 23 sec) 
Heartbeat CPU 0 instructions: 1180000000 cycles: 772612114 heartbeat IPC: 1.1395 cumulative IPC: 1.13792 (Simulation time: 3 hr 14 min 47 sec) 
Heartbeat CPU 0 instructions: 1190000000 cycles: 781369045 heartbeat IPC: 1.14195 cumulative IPC: 1.13798 (Simulation time: 3 hr 16 min 10 sec) 
Heartbeat CPU 0 instructions: 1200000000 cycles: 790152483 heartbeat IPC: 1.13851 cumulative IPC: 1.13798 (Simulation time: 3 hr 17 min 35 sec) 
Heartbeat CPU 0 instructions: 1210000001 cycles: 798943046 heartbeat IPC: 1.13758 cumulative IPC: 1.13798 (Simulation time: 3 hr 18 min 59 sec) 
Heartbeat CPU 0 instructions: 1220000004 cycles: 807781431 heartbeat IPC: 1.13143 cumulative IPC: 1.13789 (Simulation time: 3 hr 20 min 24 sec) 
Heartbeat CPU 0 instructions: 1230000002 cycles: 816628217 heartbeat IPC: 1.13035 cumulative IPC: 1.13778 (Simulation time: 3 hr 21 min 49 sec) 
Heartbeat CPU 0 instructions: 1240000002 cycles: 825403596 heartbeat IPC: 1.13955 cumulative IPC: 1.13781 (Simulation time: 3 hr 23 min 13 sec) 
Heartbeat CPU 0 instructions: 1250000002 cycles: 834166906 heartbeat IPC: 1.14112 cumulative IPC: 1.13785 (Simulation time: 3 hr 24 min 37 sec) 
Heartbeat CPU 0 instructions: 1260000003 cycles: 842860401 heartbeat IPC: 1.15029 cumulative IPC: 1.13801 (Simulation time: 3 hr 26 min 0 sec) 
Heartbeat CPU 0 instructions: 1270000004 cycles: 851667392 heartbeat IPC: 1.13546 cumulative IPC: 1.13798 (Simulation time: 3 hr 27 min 23 sec) 
Heartbeat CPU 0 instructions: 1280000004 cycles: 860401906 heartbeat IPC: 1.14488 cumulative IPC: 1.13807 (Simulation time: 3 hr 28 min 47 sec) 
Heartbeat CPU 0 instructions: 1290000001 cycles: 869167095 heartbeat IPC: 1.14088 cumulative IPC: 1.1381 (Simulation time: 3 hr 30 min 11 sec) 
Heartbeat CPU 0 instructions: 1300000004 cycles: 877911686 heartbeat IPC: 1.14356 cumulative IPC: 1.13817 (Simulation time: 3 hr 31 min 35 sec) 
Heartbeat CPU 0 instructions: 1310000004 cycles: 886720907 heartbeat IPC: 1.13517 cumulative IPC: 1.13813 (Simulation time: 3 hr 32 min 59 sec) 
Heartbeat CPU 0 instructions: 1320000001 cycles: 895534680 heartbeat IPC: 1.13459 cumulative IPC: 1.13809 (Simulation time: 3 hr 34 min 24 sec) 
Heartbeat CPU 0 instructions: 1330000002 cycles: 904337979 heartbeat IPC: 1.13594 cumulative IPC: 1.13806 (Simulation time: 3 hr 35 min 49 sec) 
Heartbeat CPU 0 instructions: 1340000001 cycles: 913127930 heartbeat IPC: 1.13766 cumulative IPC: 1.13806 (Simulation time: 3 hr 37 min 12 sec) 
Heartbeat CPU 0 instructions: 1350000000 cycles: 921864111 heartbeat IPC: 1.14466 cumulative IPC: 1.13814 (Simulation time: 3 hr 38 min 36 sec) 
Heartbeat CPU 0 instructions: 1360000001 cycles: 930654199 heartbeat IPC: 1.13765 cumulative IPC: 1.13813 (Simulation time: 3 hr 39 min 59 sec) 
Heartbeat CPU 0 instructions: 1370000003 cycles: 939408541 heartbeat IPC: 1.14229 cumulative IPC: 1.13818 (Simulation time: 3 hr 41 min 24 sec) 
Heartbeat CPU 0 instructions: 1380000002 cycles: 948247704 heartbeat IPC: 1.13133 cumulative IPC: 1.1381 (Simulation time: 3 hr 42 min 48 sec) 
Heartbeat CPU 0 instructions: 1390000003 cycles: 956994723 heartbeat IPC: 1.14325 cumulative IPC: 1.13816 (Simulation time: 3 hr 44 min 11 sec) 
Heartbeat CPU 0 instructions: 1400000004 cycles: 965816778 heartbeat IPC: 1.13352 cumulative IPC: 1.13811 (Simulation time: 3 hr 45 min 36 sec) 
Heartbeat CPU 0 instructions: 1410000001 cycles: 974578144 heartbeat IPC: 1.14137 cumulative IPC: 1.13814 (Simulation time: 3 hr 46 min 59 sec) 
Heartbeat CPU 0 instructions: 1420000002 cycles: 983351719 heartbeat IPC: 1.13979 cumulative IPC: 1.13816 (Simulation time: 3 hr 48 min 22 sec) 
Heartbeat CPU 0 instructions: 1430000001 cycles: 992143996 heartbeat IPC: 1.13736 cumulative IPC: 1.13815 (Simulation time: 3 hr 49 min 47 sec) 
Heartbeat CPU 0 instructions: 1440000000 cycles: 1000919315 heartbeat IPC: 1.13956 cumulative IPC: 1.13817 (Simulation time: 3 hr 51 min 11 sec) 
Heartbeat CPU 0 instructions: 1450000002 cycles: 1009627714 heartbeat IPC: 1.14832 cumulative IPC: 1.13827 (Simulation time: 3 hr 52 min 36 sec) 
Heartbeat CPU 0 instructions: 1460000002 cycles: 1018387887 heartbeat IPC: 1.14153 cumulative IPC: 1.13831 (Simulation time: 3 hr 54 min 0 sec) 
Heartbeat CPU 0 instructions: 1470000004 cycles: 1027144117 heartbeat IPC: 1.14204 cumulative IPC: 1.13835 (Simulation time: 3 hr 55 min 23 sec) 
Heartbeat CPU 0 instructions: 1480000001 cycles: 1035912465 heartbeat IPC: 1.14047 cumulative IPC: 1.13837 (Simulation time: 3 hr 56 min 47 sec) 
Heartbeat CPU 0 instructions: 1490000000 cycles: 1044667529 heartbeat IPC: 1.1422 cumulative IPC: 1.13841 (Simulation time: 3 hr 58 min 11 sec) 
Heartbeat CPU 0 instructions: 1500000000 cycles: 1053449635 heartbeat IPC: 1.13868 cumulative IPC: 1.13841 (Simulation time: 3 hr 59 min 35 sec) 
Heartbeat CPU 0 instructions: 1510000003 cycles: 1062247610 heartbeat IPC: 1.13663 cumulative IPC: 1.13839 (Simulation time: 4 hr 1 min 0 sec) 
Heartbeat CPU 0 instructions: 1520000004 cycles: 1071028904 heartbeat IPC: 1.13878 cumulative IPC: 1.13839 (Simulation time: 4 hr 2 min 23 sec) 
Heartbeat CPU 0 instructions: 1530000000 cycles: 1079833798 heartbeat IPC: 1.13573 cumulative IPC: 1.13837 (Simulation time: 4 hr 3 min 47 sec) 
Heartbeat CPU 0 instructions: 1540000002 cycles: 1088675318 heartbeat IPC: 1.13103 cumulative IPC: 1.1383 (Simulation time: 4 hr 5 min 12 sec) 
Heartbeat CPU 0 instructions: 1550000003 cycles: 1097434091 heartbeat IPC: 1.14171 cumulative IPC: 1.13833 (Simulation time: 4 hr 6 min 37 sec) 
Heartbeat CPU 0 instructions: 1560000000 cycles: 1106287708 heartbeat IPC: 1.12948 cumulative IPC: 1.13825 (Simulation time: 4 hr 8 min 2 sec) 
Heartbeat CPU 0 instructions: 1570000001 cycles: 1115119418 heartbeat IPC: 1.13228 cumulative IPC: 1.13819 (Simulation time: 4 hr 9 min 27 sec) 
Heartbeat CPU 0 instructions: 1580000000 cycles: 1123881395 heartbeat IPC: 1.14129 cumulative IPC: 1.13822 (Simulation time: 4 hr 10 min 51 sec) 
Heartbeat CPU 0 instructions: 1590000001 cycles: 1132609741 heartbeat IPC: 1.14569 cumulative IPC: 1.13829 (Simulation time: 4 hr 12 min 15 sec) 
Heartbeat CPU 0 instructions: 1600000003 cycles: 1141366403 heartbeat IPC: 1.14199 cumulative IPC: 1.13832 (Simulation time: 4 hr 13 min 39 sec) 
Heartbeat CPU 0 instructions: 1610000004 cycles: 1150173701 heartbeat IPC: 1.13542 cumulative IPC: 1.13829 (Simulation time: 4 hr 15 min 2 sec) 
Heartbeat CPU 0 instructions: 1620000001 cycles: 1159007674 heartbeat IPC: 1.13199 cumulative IPC: 1.13824 (Simulation time: 4 hr 16 min 26 sec) 
Heartbeat CPU 0 instructions: 1630000002 cycles: 1167869053 heartbeat IPC: 1.12849 cumulative IPC: 1.13815 (Simulation time: 4 hr 17 min 50 sec) 
Heartbeat CPU 0 instructions: 1640000003 cycles: 1176603674 heartbeat IPC: 1.14487 cumulative IPC: 1.13821 (Simulation time: 4 hr 19 min 14 sec) 
Heartbeat CPU 0 instructions: 1650000000 cycles: 1185381472 heartbeat IPC: 1.13924 cumulative IPC: 1.13822 (Simulation time: 4 hr 20 min 37 sec) 
Heartbeat CPU 0 instructions: 1660000000 cycles: 1194203318 heartbeat IPC: 1.13355 cumulative IPC: 1.13818 (Simulation time: 4 hr 22 min 1 sec) 
Heartbeat CPU 0 instructions: 1670000003 cycles: 1202988279 heartbeat IPC: 1.13831 cumulative IPC: 1.13818 (Simulation time: 4 hr 23 min 25 sec) 
Heartbeat CPU 0 instructions: 1680000002 cycles: 1211720493 heartbeat IPC: 1.14518 cumulative IPC: 1.13824 (Simulation time: 4 hr 24 min 49 sec) 
Heartbeat CPU 0 instructions: 1690000000 cycles: 1220540216 heartbeat IPC: 1.13382 cumulative IPC: 1.1382 (Simulation time: 4 hr 26 min 13 sec) 
Heartbeat CPU 0 instructions: 1700000000 cycles: 1229370859 heartbeat IPC: 1.13242 cumulative IPC: 1.13815 (Simulation time: 4 hr 27 min 36 sec) 
Heartbeat CPU 0 instructions: 1710000001 cycles: 1238133889 heartbeat IPC: 1.14116 cumulative IPC: 1.13818 (Simulation time: 4 hr 28 min 59 sec) 
Heartbeat CPU 0 instructions: 1720000002 cycles: 1246941438 heartbeat IPC: 1.13539 cumulative IPC: 1.13815 (Simulation time: 4 hr 30 min 22 sec) 
Heartbeat CPU 0 instructions: 1730000004 cycles: 1255741008 heartbeat IPC: 1.13642 cumulative IPC: 1.13814 (Simulation time: 4 hr 31 min 45 sec) 
Heartbeat CPU 0 instructions: 1740000004 cycles: 1264500754 heartbeat IPC: 1.14159 cumulative IPC: 1.13817 (Simulation time: 4 hr 33 min 8 sec) 
Heartbeat CPU 0 instructions: 1750000000 cycles: 1273263554 heartbeat IPC: 1.14119 cumulative IPC: 1.13819 (Simulation time: 4 hr 34 min 32 sec) 
Heartbeat CPU 0 instructions: 1760000003 cycles: 1282026053 heartbeat IPC: 1.14123 cumulative IPC: 1.13822 (Simulation time: 4 hr 35 min 54 sec) 
Heartbeat CPU 0 instructions: 1770000004 cycles: 1290823118 heartbeat IPC: 1.13674 cumulative IPC: 1.1382 (Simulation time: 4 hr 37 min 18 sec) 
Heartbeat CPU 0 instructions: 1780000001 cycles: 1299684957 heartbeat IPC: 1.12843 cumulative IPC: 1.13813 (Simulation time: 4 hr 38 min 42 sec) 
Heartbeat CPU 0 instructions: 1790000002 cycles: 1308496479 heartbeat IPC: 1.13488 cumulative IPC: 1.1381 (Simulation time: 4 hr 40 min 5 sec) 
Heartbeat CPU 0 instructions: 1800000004 cycles: 1317202892 heartbeat IPC: 1.14858 cumulative IPC: 1.13818 (Simulation time: 4 hr 41 min 28 sec) 
Heartbeat CPU 0 instructions: 1810000003 cycles: 1326009098 heartbeat IPC: 1.13556 cumulative IPC: 1.13816 (Simulation time: 4 hr 42 min 51 sec) 
Heartbeat CPU 0 instructions: 1820000003 cycles: 1334783321 heartbeat IPC: 1.1397 cumulative IPC: 1.13817 (Simulation time: 4 hr 44 min 14 sec) 
Heartbeat CPU 0 instructions: 1830000000 cycles: 1343597963 heartbeat IPC: 1.13448 cumulative IPC: 1.13814 (Simulation time: 4 hr 45 min 38 sec) 
Heartbeat CPU 0 instructions: 1840000002 cycles: 1352389019 heartbeat IPC: 1.13752 cumulative IPC: 1.13814 (Simulation time: 4 hr 47 min 1 sec) 
Heartbeat CPU 0 instructions: 1850000003 cycles: 1361182881 heartbeat IPC: 1.13716 cumulative IPC: 1.13813 (Simulation time: 4 hr 48 min 25 sec) 
Heartbeat CPU 0 instructions: 1860000000 cycles: 1369989728 heartbeat IPC: 1.13548 cumulative IPC: 1.13811 (Simulation time: 4 hr 49 min 48 sec) 
Heartbeat CPU 0 instructions: 1870000001 cycles: 1378797590 heartbeat IPC: 1.13535 cumulative IPC: 1.13809 (Simulation time: 4 hr 51 min 12 sec) 
Heartbeat CPU 0 instructions: 1880000002 cycles: 1387633365 heartbeat IPC: 1.13176 cumulative IPC: 1.13805 (Simulation time: 4 hr 52 min 36 sec) 
Heartbeat CPU 0 instructions: 1890000004 cycles: 1396330309 heartbeat IPC: 1.14983 cumulative IPC: 1.13813 (Simulation time: 4 hr 54 min 0 sec) 
Heartbeat CPU 0 instructions: 1900000004 cycles: 1405160159 heartbeat IPC: 1.13252 cumulative IPC: 1.13809 (Simulation time: 4 hr 55 min 24 sec) 
Heartbeat CPU 0 instructions: 1910000002 cycles: 1413905140 heartbeat IPC: 1.14351 cumulative IPC: 1.13813 (Simulation time: 4 hr 56 min 47 sec) 
Heartbeat CPU 0 instructions: 1920000001 cycles: 1422699564 heartbeat IPC: 1.13708 cumulative IPC: 1.13812 (Simulation time: 4 hr 58 min 11 sec) 
Heartbeat CPU 0 instructions: 1930000002 cycles: 1431442860 heartbeat IPC: 1.14373 cumulative IPC: 1.13816 (Simulation time: 4 hr 59 min 34 sec) 
Heartbeat CPU 0 instructions: 1940000003 cycles: 1440200674 heartbeat IPC: 1.14184 cumulative IPC: 1.13819 (Simulation time: 5 hr 0 min 57 sec) 
Heartbeat CPU 0 instructions: 1950000000 cycles: 1448996251 heartbeat IPC: 1.13693 cumulative IPC: 1.13818 (Simulation time: 5 hr 2 min 20 sec) 
Heartbeat CPU 0 instructions: 1960000001 cycles: 1457731744 heartbeat IPC: 1.14476 cumulative IPC: 1.13822 (Simulation time: 5 hr 3 min 43 sec) 
Heartbeat CPU 0 instructions: 1970000002 cycles: 1466509935 heartbeat IPC: 1.13919 cumulative IPC: 1.13823 (Simulation time: 5 hr 5 min 7 sec) 
Heartbeat CPU 0 instructions: 1980000003 cycles: 1475309203 heartbeat IPC: 1.13646 cumulative IPC: 1.13822 (Simulation time: 5 hr 6 min 30 sec) 
Heartbeat CPU 0 instructions: 1990000003 cycles: 1484111597 heartbeat IPC: 1.13605 cumulative IPC: 1.1382 (Simulation time: 5 hr 7 min 53 sec) 
*** Reached end of trace: traces/649.fotonik3d_s-1176B.champsimtrace.xz
Heartbeat CPU 0 instructions: 2000000002 cycles: 1492819711 heartbeat IPC: 1.14835 cumulative IPC: 1.13827 (Simulation time: 5 hr 9 min 16 sec) 
Finished CPU 0 instructions: 1500000000 cycles: 1317789876 cumulative IPC: 1.13827 (Simulation time: 5 hr 9 min 16 sec) 

ChampSim completed all CPUs

Region of Interest Statistics

CPU 0 cumulative IPC: 1.13827 instructions: 1500000000 cycles: 1317789876
cpu0_DTLB TOTAL     ACCESS:  250307946  HIT:  249956471  MISS:     351475
cpu0_DTLB LOAD      ACCESS:  217359006  HIT:  217010817  MISS:     348189
cpu0_DTLB RFO       ACCESS:   32948940  HIT:   32945654  MISS:       3286
cpu0_DTLB PREFETCH  ACCESS:          0  HIT:          0  MISS:          0
cpu0_DTLB WRITEBACK ACCESS:          0  HIT:          0  MISS:          0
cpu0_DTLB TRANSLATION ACCESS:          0  HIT:          0  MISS:          0
cpu0_DTLB PREFETCH  REQUESTED:          0  ISSUED:          0  USEFUL:          0  USELESS:          0
cpu0_DTLB AVERAGE MISS LATENCY: 131.527 cycles
cpu0_ITLB TOTAL     ACCESS:     275370  HIT:     275370  MISS:          0
cpu0_ITLB LOAD      ACCESS:     275370  HIT:     275370  MISS:          0
cpu0_ITLB RFO       ACCESS:          0  HIT:          0  MISS:          0
cpu0_ITLB PREFETCH  ACCESS:          0  HIT:          0  MISS:          0
cpu0_ITLB WRITEBACK ACCESS:          0  HIT:          0  MISS:          0
cpu0_ITLB TRANSLATION ACCESS:          0  HIT:          0  MISS:          0
cpu0_ITLB PREFETCH  REQUESTED:          0  ISSUED:          0  USEFUL:          0  USELESS:          0
cpu0_ITLB AVERAGE MISS LATENCY: -nan cycles
cpu0_L1I TOTAL     ACCESS:       7657  HIT:       7657  MISS:          0
cpu0_L1I LOAD      ACCESS:       7657  HIT:       7657  MISS:          0
cpu0_L1I RFO       ACCESS:          0  HIT:          0  MISS:          0
cpu0_L1I PREFETCH  ACCESS:          0  HIT:          0  MISS:          0
cpu0_L1I WRITEBACK ACCESS:          0  HIT:          0  MISS:          0
cpu0_L1I TRANSLATION ACCESS:          0  HIT:          0  MISS:          0
cpu0_L1I PREFETCH  REQUESTED:          0  ISSUED:          0  USEFUL:          0  USELESS:          0
cpu0_L1I AVERAGE MISS LATENCY: -nan cycles
cpu0_STLB TOTAL     ACCESS:     351475  HIT:     145605  MISS:     205870
cpu0_STLB LOAD      ACCESS:     348189  HIT:     142319  MISS:     205870
cpu0_STLB RFO       ACCESS:       3286  HIT:       3286  MISS:          0
cpu0_STLB PREFETCH  ACCESS:          0  HIT:          0  MISS:          0
cpu0_STLB WRITEBACK ACCESS:          0  HIT:          0  MISS:          0
cpu0_STLB TRANSLATION ACCESS:          0  HIT:          0  MISS:          0
cpu0_STLB PREFETCH  REQUESTED:          0  ISSUED:          0  USEFUL:          0  USELESS:          0
cpu0_STLB AVERAGE MISS LATENCY: 209.161 cycles
cpu0_L1D TOTAL     ACCESS:  308202761  HIT:  288345133  MISS:   19857628
cpu0_L1D LOAD      ACCESS:  202729857  HIT:  182902207  MISS:   19827650
cpu0_L1D RFO       ACCESS:  105267037  HIT:  105244035  MISS:      23002
cpu0_L1D PREFETCH  ACCESS:          0  HIT:          0  MISS:          0
cpu0_L1D WRITEBACK ACCESS:          0  HIT:          0  MISS:          0
cpu0_L1D TRANSLATION ACCESS:     205867  HIT:     198891  MISS:       6976
cpu0_L1D PREFETCH  REQUESTED:          0  ISSUED:          0  USEFUL:          0  USELESS:          0
cpu0_L1D AVERAGE MISS LATENCY: 172.163 cycles
cpu0_L2C TOTAL     ACCESS:   33035109  HIT:   18536253  MISS:   14498856
cpu0_L2C LOAD      ACCESS:   19827650  HIT:    5338225  MISS:   14489425
cpu0_L2C RFO       ACCESS:      23002  HIT:      15560  MISS:       7442
cpu0_L2C PREFETCH  ACCESS:          0  HIT:          0  MISS:          0
cpu0_L2C WRITEBACK ACCESS:   13177481  HIT:   13177481  MISS:          0
cpu0_L2C TRANSLATION ACCESS:       6976  HIT:       4987  MISS:       1989
cpu0_L2C PREFETCH  REQUESTED:          0  ISSUED:          0  USEFUL:          0  USELESS:          0
cpu0_L2C AVERAGE MISS LATENCY: 220.723 cycles
LLC TOTAL     ACCESS:   27654339  HIT:   14289167  MISS:   13365172
LLC LOAD      ACCESS:   14489425  HIT:    1125248  MISS:   13364177
LLC RFO       ACCESS:       7442  HIT:       7410  MISS:         32
LLC PREFETCH  ACCESS:          0  HIT:          0  MISS:          0
LLC WRITEBACK ACCESS:   13155483  HIT:   13155093  MISS:        390
LLC TRANSLATION ACCESS:       1989  HIT:       1416  MISS:        573
LLC PREFETCH  REQUESTED:          0  ISSUED:          0  USEFUL:          0  USELESS:          0
LLC AVERAGE MISS LATENCY: 216.664 cycles
~~~~~~~~~~Reuse Distance Profiler output~~~~~~~~~~
0	80970352	10416240
1	28596176	18211984
2	61234496	39035536
3	47220656	34842976
4	51781808	36781968
5	39377824	38211184
6	25769744	23889440
7	28914480	28796752
8	23610816	23559872
9	5056928	4969776
10	13441824	13354240
11	6280192	6233840
12	5353120	5293232
13	1797040	1756592
14	667856	621856
15	592848	503280
16	416576	316448
17	2996240	2179072
18	3971584	1983408
19	152240	75952
20	41632	21920
21	82448	51072
22	193072	26624
23	108224	55792
24	629648	573856
25	587184	17488
26	1973536	62016
27	498384	494240
28	45008	42320
29	65680	59728
30	18272	5408
31	91088	22832
32	1249840	1222464
33	49376	7392
34	155184	3248
35	33200	1296
36	39840	36016
37	13424	896
38	1488	528
39	8592	6912
40	3296	528
41	2240	784
42	8640	7952
43	6560	3360
44	4128	2320
45	2384	1616
46	2640	2128
47	3120	2640
48	4112	2720
49	3792	1776
50	2800	1680
51	3728	1952
52	4384	2128
53	4768	1536
54	5312	1744
55	4496	1920
56	2928	1168
57	2944	1424
58	2208	1008
59	2384	1328
60	2384	1840
61	2624	1840
62	2688	1824
63	3728	2416
64	6320	3152
66	3952	2256
68	6512	3264
70	5056	3216
72	3904	2400
74	4896	3968
76	5712	4384
78	8400	6656
80	7424	6096
82	6880	5824
84	7472	6640
86	5840	5392
88	5712	5568
90	7360	7296
92	6048	6016
94	6304	6288
96	7376	7376
98	3344	3344
100	1392	1376
102	512	512
104	608	608
106	448	448
108	336	336
110	192	192
112	144	144
114	112	112
116	32	32
118	16	0
120	0	0
122	32	32
124	0	0
126	0	0
128	32	32
132	32	32
136	128	128
140	1344	1344
144	1072	1008
148	864	624
152	1360	1136
156	2288	1920
160	2608	1472
164	1344	1056
168	896	608
172	752	528
176	416	240
180	1488	320
184	1984	816
188	976	784
192	496	368
196	176	96
200	112	112
204	16	16
208	0	0
212	0	0
216	0	0
220	0	0
224	0	0
228	0	0
232	16	16
236	0	0
240	0	0
244	0	0
248	0	0
252	0	0
256	32	32
264	16	16
272	0	0
280	0	0
288	0	0
296	0	0
304	0	0
312	0	0
320	0	0
328	0	0
336	0	0
344	16	16
352	0	0
360	0	0
368	0	0
376	0	0
384	0	0
392	0	0
400	0	0
408	0	0
416	0	0
424	0	0
432	0	0
440	0	0
448	0	0
456	0	0
464	0	0
472	0	0
480	16	16
488	0	0
496	0	0
504	0	0
512	0	0
528	0	0
544	0	0
560	0	0
576	16	16
592	16	16
608	16	16
624	0	0
640	0	0
656	0	0
672	0	0
688	0	0
704	0	0
720	0	0
736	0	0
752	16	16
768	16	16
784	0	0
800	16	16
816	0	0
832	0	0
848	0	0
864	0	0
880	0	0
896	0	0
912	16	16
928	0	0
944	0	0
960	0	0
976	0	0
992	0	0
1008	0	0
1024	0	0
1056	0	0
1088	0	0
1120	0	0
1152	0	0
1184	0	0
1216	16	16
1248	0	0
1280	0	0
1312	16	16
1344	0	0
1376	16	16
1408	16	16
1440	16	16
1472	0	0
1504	16	16
1536	0	0
1568	16	16
1600	0	0
1632	0	0
1664	0	0
1696	16	16
1728	0	0
1760	0	0
1792	0	0
1824	0	0
1856	0	0
1888	0	0
1920	0	0
1952	0	0
1984	0	0
2016	0	0
2048	0	0
2112	32	32
2176	32	32
2240	0	0
2304	0	0
2368	0	0
2432	0	0
2496	16	16
2560	0	0
2624	0	0
2688	16	16
2752	0	0
2816	0	0
2880	0	0
2944	0	0
3008	0	0
3072	0	0
3136	0	0
3200	0	0
3264	0	0
3328	0	0
3392	0	0
3456	0	0
3520	0	0
3584	0	0
3648	0	0
3712	16	16
3776	0	0
3840	0	0
3904	32	32
3968	0	0
4032	0	0
4096	16	16
4224	0	0
4352	0	0
4480	0	0
4608	0	0
4736	0	0
4864	0	0
4992	0	0
5120	32	32
5248	0	0
5376	0	0
5504	0	0
5632	0	0
5760	16	16
5888	16	16
6016	0	0
6144	0	0
6272	0	0
6400	0	0
6528	0	0
6656	16	16
6784	0	0
6912	0	0
7040	0	0
7168	0	0
7296	0	0
7424	0	0
7552	0	0
7680	0	0
7808	16	16
7936	0	0
8064	0	0
8192	0	0
8448	0	0
8704	0	0
8960	0	0
9216	0	0
9472	0	0
9728	0	0
9984	0	0
10240	0	0
10496	0	0
10752	0	0
11008	0	0
11264	0	0
11520	0	0
11776	0	0
12032	0	0
12288	0	0
12544	0	0
12800	0	0
13056	0	0
13312	0	0
13568	0	0
13824	0	0
14080	0	0
14336	0	0
14592	0	0
14848	0	0
15104	0	0
15360	0	0
15616	0	0
15872	48	32
16128	0	0
16384	0	0
16896	0	0
17408	0	0
17920	0	0
18432	16	16
18944	0	0
19456	0	0
19968	0	0
20480	0	0
20992	0	0
21504	0	0
22016	16	16
22528	16	16
23040	0	0
23552	0	0
24064	0	0
24576	16	16
25088	0	0
25600	0	0
26112	0	0
26624	0	0
27136	0	0
27648	0	0
28160	0	0
28672	0	0
29184	0	0
29696	0	0
30208	16	16
30720	16	16
31232	16	16
31744	0	0
32256	0	0
32768	16	16
33792	0	0
34816	0	0
35840	32	32
36864	16	16
37888	0	0
38912	80	80
39936	288	288
40960	288	288
41984	288	288
43008	0	0
44032	0	0
45056	4256	3872
46080	22688	20848
47104	11120	10400
48128	2416	2320
49152	0	0
50176	0	0
51200	0	0
52224	0	0
53248	0	0
54272	0	0
55296	0	0
56320	16	16
57344	48	48
58368	0	0
59392	0	0
60416	0	0
61440	0	0
62464	0	0
63488	0	0
64512	0	0
65536	16	16
67584	6112	5616
69632	6464	6000
71680	128	128
73728	0	0
75776	0	0
77824	0	0
79872	0	0
81920	0	0
83968	16	16
86016	0	0
88064	0	0
90112	50192	49552
92160	4762976	4752256
94208	1848032	1839312
96256	80	80
98304	96	96
100352	80	80
102400	64	64
104448	64	64
106496	64	64
108544	80	64
110592	112	112
112640	96	80
114688	80	64
116736	64	48
118784	32	16
120832	128	112
122880	176	160
124928	96	80
126976	176	176
129024	96	96
131072	96	96
135168	898624	895184
139264	1287920	1284784
143360	80	48
147456	32	0
151552	16	0
155648	32	0
159744	0	0
163840	16	16
167936	32	32
172032	32	16
176128	48	0
180224	48	0
184320	48	32
188416	32	0
192512	32	16
196608	32	0
200704	48	32
204800	0	0
208896	16	16
212992	32	16
217088	32	0
221184	48	16
225280	32	16
229376	32	0
233472	0	0
237568	16	16
241664	16	16
245760	0	0
249856	32	16
253952	16	0
258048	64	32
262144	48	16
270336	64	64
278528	16	16
286720	48	16
294912	128	48
303104	96	32
311296	64	16
319488	32	32
327680	16	16
335872	48	48
344064	64	32
352256	96	48
360448	64	16
368640	16	16
376832	48	48
385024	32	16
393216	64	16
401408	48	16
409600	64	16
417792	48	0
425984	80	32
434176	80	32
442368	32	0
450560	32	0
458752	0	0
466944	32	32
475136	0	0
483328	32	32
491520	16	0
499712	112	48
507904	96	48
516096	0	0
524288	224	128
540672	64	32
557056	0	0
573440	64	32
589824	144	48
606208	48	48
622592	96	96
638976	144	128
655360	48	48
671744	128	0
688128	80	64
704512	128	32
720896	16	16
737280	16	16
753664	96	48
770048	80	0
786432	80	80
802816	0	0
819200	0	0
835584	0	0
851968	0	0
868352	16	16
884736	0	0
901120	0	0
917504	0	0
933888	0	0
950272	0	0
966656	0	0
983040	0	0
999424	0	0
1015808	0	0
1032192	0	0
1048576	0	0
1081344	0	0
1114112	0	0
1146880	0	0
1179648	0	0
1212416	0	0
1245184	0	0
1277952	0	0
1310720	0	0
1343488	0	0
1376256	0	0
1409024	0	0
1441792	0	0
1474560	0	0
1507328	0	0
1540096	0	0
1572864	0	0
1605632	0	0
1638400	0	0
1671168	0	0
1703936	0	0
1736704	0	0
1769472	0	0
1802240	0	0
1835008	0	0
1867776	0	0
1900544	0	0
1933312	0	0
1966080	0	0
1998848	0	0
2031616	0	0
2064384	0	0
2097152	0	0
2162688	0	0
2228224	0	0
2293760	0	0
2359296	0	0
2424832	0	0
2490368	0	0
2555904	0	0
2621440	0	0
2686976	0	0
2752512	0	0
2818048	0	0
2883584	0	0
2949120	0	0
3014656	0	0
3080192	0	0
3145728	0	0
3211264	0	0
3276800	0	0
3342336	0	0
3407872	0	0
3473408	0	0
3538944	0	0
3604480	0	0
3670016	0	0
3735552	0	0
3801088	800	800
3866624	0	0
3932160	32	32
3997696	208	208
4063232	32	32
4128768	0	0
4194304	96	96
4325376	144	144
4456448	0	0
4587520	0	0
4718592	0	0
4849664	0	0
4980736	0	0
5111808	0	0
5242880	0	0
5373952	0	0
5505024	0	0
5636096	336	336
5767168	16	16
5898240	48	48
6029312	0	0
6160384	16	16
6291456	0	0
6422528	16	16
6553600	64	64
6684672	0	0
6815744	0	0
6946816	0	0
7077888	0	0
7208960	0	0
7340032	0	0
7471104	0	0
7602176	0	0
7733248	0	0
7864320	0	0
7995392	0	0
8126464	0	0
8257536	0	0
8388608	0	0
8650752	0	0
8912896	0	0
9175040	0	0
9437184	0	0
9699328	0	0
9961472	0	0
10223616	0	0
10485760	0	0
10747904	0	0
11010048	0	0
11272192	0	0
11534336	0	0
11796480	0	0
12058624	0	0
12320768	0	0
12582912	0	0
12845056	0	0
13107200	0	0
13369344	0	0
13631488	0	0
13893632	0	0
14155776	0	0
14417920	0	0
14680064	0	0
14942208	0	0
15204352	0	0
15466496	0	0
15728640	0	0
15990784	0	0
16252928	0	0
16515072	0	0
16777216	0	0
17301504	0	0
17825792	0	0
18350080	0	0
18874368	0	0
19398656	0	0
19922944	0	0
20447232	0	0
20971520	0	0
21495808	0	0
22020096	0	0
22544384	0	0
23068672	0	0
23592960	0	0
24117248	0	0
24641536	0	0
25165824	0	0
25690112	0	0
26214400	0	0
26738688	0	0
27262976	0	0
27787264	0	0
28311552	0	0
28835840	0	0
29360128	0	0
29884416	0	0
30408704	0	0
30932992	0	0
31457280	0	0
31981568	0	0
32505856	0	0
33030144	0	0
33554432	0	0
34603008	0	0
35651584	0	0
36700160	0	0
37748736	0	0
38797312	0	0
39845888	0	0
40894464	0	0
41943040	0	0
42991616	0	0
44040192	0	0
45088768	0	0
46137344	0	0
47185920	0	0
48234496	0	0
49283072	0	0
50331648	0	0
51380224	0	0
52428800	0	0
53477376	0	0
54525952	0	0
55574528	0	0
56623104	0	0
57671680	0	0
58720256	0	0
59768832	0	0
60817408	0	0
61865984	0	0
62914560	0	0
63963136	0	0
65011712	0	0
66060288	0	0
67108864	0	0
69206016	0	0
71303168	0	0
73400320	0	0
75497472	0	0
77594624	0	0
79691776	0	0
81788928	0	0
83886080	0	0
85983232	0	0
88080384	0	0
90177536	0	0
92274688	0	0
94371840	0	0
96468992	0	0
98566144	0	0
100663296	0	0
102760448	0	0
104857600	0	0
106954752	0	0
109051904	0	0
111149056	0	0
113246208	0	0
115343360	0	0
117440512	0	0
119537664	0	0
121634816	0	0
123731968	0	0
125829120	0	0
127926272	0	0
130023424	0	0
132120576	0	0
134217728	0	0
138412032	0	0
142606336	0	0
146800640	0	0
150994944	0	0
155189248	0	0
159383552	0	0
163577856	0	0
167772160	0	0
171966464	0	0
176160768	0	0
180355072	0	0
184549376	0	0
188743680	0	0
192937984	0	0
197132288	0	0
201326592	0	0
205520896	0	0
209715200	0	0
213909504	0	0
218103808	0	0
222298112	0	0
226492416	0	0
230686720	0	0
234881024	0	0
239075328	0	0
243269632	0	0
247463936	0	0
251658240	0	0
255852544	0	0
260046848	0	0
264241152	0	0
268435456	0	0
276824064	0	0
285212672	0	0
293601280	0	0
301989888	0	0
310378496	0	0
318767104	0	0
327155712	0	0
335544320	0	0
343932928	0	0
352321536	0	0
360710144	0	0
369098752	0	0
377487360	0	0
385875968	0	0
394264576	0	0
402653184	0	0
411041792	0	0
419430400	0	0
427819008	0	0
436207616	0	0
444596224	0	0
452984832	0	0
461373440	0	0
469762048	0	0
478150656	0	0
486539264	0	0
494927872	0	0
503316480	0	0
511705088	0	0
520093696	0	0
528482304	0	0
536870912	0	0
553648128	0	0
570425344	0	0
587202560	0	0
603979776	0	0
620756992	0	0
637534208	0	0
654311424	0	0
671088640	0	0
687865856	0	0
704643072	0	0
721420288	0	0
738197504	0	0
754974720	0	0
771751936	0	0
788529152	0	0
805306368	0	0
822083584	0	0
838860800	0	0
855638016	0	0
872415232	0	0
889192448	0	0
905969664	0	0
922746880	0	0
939524096	0	0
956301312	0	0
973078528	0	0
989855744	0	0
1006632960	0	0
1023410176	0	0
1040187392	0	0
1056964608	0	0
1073741824	0	0
1107296256	0	0
1140850688	0	0
1174405120	0	0
1207959552	0	0
1241513984	0	0
1275068416	0	0
1308622848	0	0
1342177280	0	0
1375731712	0	0
1409286144	0	0
1442840576	0	0
1476395008	0	0
1509949440	0	0
1543503872	0	0
1577058304	0	0
1610612736	0	0
1644167168	0	0
1677721600	0	0
1711276032	0	0
1744830464	0	0
1778384896	0	0
1811939328	0	0
1845493760	0	0
1879048192	0	0
1912602624	0	0
1946157056	0	0
1979711488	0	0
2013265920	0	0
2046820352	0	0
2080374784	0	0
2113929216	0	0
2147483648	0	0
2214592512	0	0
2281701376	0	0
2348810240	0	0
2415919104	0	0
2483027968	0	0
2550136832	0	0
2617245696	0	0
2684354560	0	0
2751463424	0	0
2818572288	0	0
2885681152	0	0
2952790016	0	0
3019898880	0	0
3087007744	0	0
3154116608	0	0
3221225472	0	0
3288334336	0	0
3355443200	0	0
3422552064	0	0
3489660928	0	0
3556769792	0	0
3623878656	0	0
3690987520	0	0
3758096384	0	0
3825205248	0	0
3892314112	0	0
3959422976	0	0
4026531840	0	0
4093640704	0	0
4160749568	0	0
4227858432	0	0
~~~~~~~~~~Reuse Distance Profiler output end~~~~~~~~~~

DRAM Statistics
 CHANNEL 0
 RQ ROW_BUFFER_HIT:     318161  ROW_BUFFER_MISS:   13046620
 DBUS AVG_CONGESTED_CYCLE:    3.98489
 WQ ROW_BUFFER_HIT:    2106839  ROW_BUFFER_MISS:   11041013  FULL:          0


CPU 0 Branch Prediction Accuracy: 99.9501% MPKI: 0.00876267 Average ROB Occupancy at Mispredict: 341.046
Branch type MPKI
BRANCH_DIRECT_JUMP: 0
BRANCH_INDIRECT: 0
BRANCH_CONDITIONAL: 0.00876267
BRANCH_DIRECT_CALL: 0
BRANCH_INDIRECT_CALL: 0
BRANCH_RETURN: 0

