
*** ChampSim Multicore Out-of-Order Simulator ***

Warmup Instructions: 500000000
Simulation Instructions: 1500000000
Number of CPUs: 1
Off-chip DRAM Size: 4 GiB Channels: 1 Width: 64-bit Data Rate: 3200 MT/s

VirtualMemory physical capacity: 8588881920 num_ppages: 2096895
VirtualMemory page size: 4096 log2_page_size: 12

CPU 0 runs traces/649.fotonik3d_s-8225B.champsimtrace.xz
CPU 0 Bimodal branch predictor
Basic BTB sets: 1024 ways: 8 indirect buffer size: 4096 RAS size: 64
Initializing LRU.
Initializing LRU.
Initializing LRU.
Initializing LRU.
Initializing rdLRU.
Initializing LRU.
Initializing LRU.
Heartbeat CPU 0 instructions: 10000004 cycles: 3507808 heartbeat IPC: 2.85078 cumulative IPC: 2.85078 (Simulation time: 0 hr 1 min 24 sec) 
Heartbeat CPU 0 instructions: 20000001 cycles: 7015495 heartbeat IPC: 2.85088 cumulative IPC: 2.85083 (Simulation time: 0 hr 2 min 48 sec) 
Heartbeat CPU 0 instructions: 30000000 cycles: 10523179 heartbeat IPC: 2.85088 cumulative IPC: 2.85085 (Simulation time: 0 hr 3 min 58 sec) 
Heartbeat CPU 0 instructions: 40000000 cycles: 14030860 heartbeat IPC: 2.85089 cumulative IPC: 2.85086 (Simulation time: 0 hr 5 min 5 sec) 
Heartbeat CPU 0 instructions: 50000001 cycles: 17538547 heartbeat IPC: 2.85088 cumulative IPC: 2.85086 (Simulation time: 0 hr 6 min 8 sec) 
Heartbeat CPU 0 instructions: 60000002 cycles: 21046236 heartbeat IPC: 2.85088 cumulative IPC: 2.85087 (Simulation time: 0 hr 7 min 27 sec) 
Heartbeat CPU 0 instructions: 70000000 cycles: 24553917 heartbeat IPC: 2.85089 cumulative IPC: 2.85087 (Simulation time: 0 hr 8 min 42 sec) 
Heartbeat CPU 0 instructions: 80000001 cycles: 28061605 heartbeat IPC: 2.85088 cumulative IPC: 2.85087 (Simulation time: 0 hr 9 min 53 sec) 
Heartbeat CPU 0 instructions: 90000002 cycles: 31569342 heartbeat IPC: 2.85084 cumulative IPC: 2.85087 (Simulation time: 0 hr 11 min 4 sec) 
Heartbeat CPU 0 instructions: 100000002 cycles: 35077026 heartbeat IPC: 2.85088 cumulative IPC: 2.85087 (Simulation time: 0 hr 12 min 30 sec) 
Heartbeat CPU 0 instructions: 110000002 cycles: 38584711 heartbeat IPC: 2.85088 cumulative IPC: 2.85087 (Simulation time: 0 hr 13 min 41 sec) 
Heartbeat CPU 0 instructions: 120000003 cycles: 42092395 heartbeat IPC: 2.85088 cumulative IPC: 2.85087 (Simulation time: 0 hr 14 min 45 sec) 
Heartbeat CPU 0 instructions: 130000000 cycles: 45600080 heartbeat IPC: 2.85088 cumulative IPC: 2.85087 (Simulation time: 0 hr 15 min 37 sec) 
Heartbeat CPU 0 instructions: 140000004 cycles: 49107764 heartbeat IPC: 2.85089 cumulative IPC: 2.85087 (Simulation time: 0 hr 16 min 40 sec) 
Heartbeat CPU 0 instructions: 150000004 cycles: 52615452 heartbeat IPC: 2.85088 cumulative IPC: 2.85087 (Simulation time: 0 hr 17 min 55 sec) 
Heartbeat CPU 0 instructions: 160000004 cycles: 56123133 heartbeat IPC: 2.85089 cumulative IPC: 2.85087 (Simulation time: 0 hr 19 min 3 sec) 
Heartbeat CPU 0 instructions: 170000003 cycles: 59630820 heartbeat IPC: 2.85088 cumulative IPC: 2.85087 (Simulation time: 0 hr 20 min 21 sec) 
Heartbeat CPU 0 instructions: 180000003 cycles: 63138505 heartbeat IPC: 2.85088 cumulative IPC: 2.85088 (Simulation time: 0 hr 21 min 36 sec) 
Heartbeat CPU 0 instructions: 190000001 cycles: 66646240 heartbeat IPC: 2.85084 cumulative IPC: 2.85087 (Simulation time: 0 hr 22 min 41 sec) 
Heartbeat CPU 0 instructions: 200000002 cycles: 70153922 heartbeat IPC: 2.85089 cumulative IPC: 2.85087 (Simulation time: 0 hr 24 min 10 sec) 
Heartbeat CPU 0 instructions: 210000003 cycles: 73661609 heartbeat IPC: 2.85088 cumulative IPC: 2.85087 (Simulation time: 0 hr 25 min 30 sec) 
Heartbeat CPU 0 instructions: 220000002 cycles: 77169291 heartbeat IPC: 2.85089 cumulative IPC: 2.85087 (Simulation time: 0 hr 26 min 37 sec) 
Heartbeat CPU 0 instructions: 230000004 cycles: 80676978 heartbeat IPC: 2.85088 cumulative IPC: 2.85088 (Simulation time: 0 hr 27 min 58 sec) 
Heartbeat CPU 0 instructions: 240000002 cycles: 84184666 heartbeat IPC: 2.85088 cumulative IPC: 2.85088 (Simulation time: 0 hr 29 min 7 sec) 
Heartbeat CPU 0 instructions: 250000004 cycles: 87692351 heartbeat IPC: 2.85088 cumulative IPC: 2.85088 (Simulation time: 0 hr 30 min 7 sec) 
Heartbeat CPU 0 instructions: 260000000 cycles: 91200032 heartbeat IPC: 2.85089 cumulative IPC: 2.85088 (Simulation time: 0 hr 31 min 4 sec) 
Heartbeat CPU 0 instructions: 270000003 cycles: 94707719 heartbeat IPC: 2.85088 cumulative IPC: 2.85088 (Simulation time: 0 hr 32 min 23 sec) 
Heartbeat CPU 0 instructions: 280000001 cycles: 98215405 heartbeat IPC: 2.85088 cumulative IPC: 2.85088 (Simulation time: 0 hr 33 min 28 sec) 
Heartbeat CPU 0 instructions: 290000000 cycles: 101723088 heartbeat IPC: 2.85088 cumulative IPC: 2.85088 (Simulation time: 0 hr 34 min 34 sec) 
Heartbeat CPU 0 instructions: 300000004 cycles: 105230825 heartbeat IPC: 2.85084 cumulative IPC: 2.85088 (Simulation time: 0 hr 35 min 31 sec) 
Heartbeat CPU 0 instructions: 310000003 cycles: 108738512 heartbeat IPC: 2.85088 cumulative IPC: 2.85088 (Simulation time: 0 hr 36 min 51 sec) 
Heartbeat CPU 0 instructions: 320000002 cycles: 112246194 heartbeat IPC: 2.85089 cumulative IPC: 2.85088 (Simulation time: 0 hr 38 min 9 sec) 
Heartbeat CPU 0 instructions: 330000002 cycles: 115753882 heartbeat IPC: 2.85088 cumulative IPC: 2.85088 (Simulation time: 0 hr 39 min 27 sec) 
Heartbeat CPU 0 instructions: 340000002 cycles: 119261563 heartbeat IPC: 2.85089 cumulative IPC: 2.85088 (Simulation time: 0 hr 40 min 41 sec) 
Heartbeat CPU 0 instructions: 350000001 cycles: 122769250 heartbeat IPC: 2.85088 cumulative IPC: 2.85088 (Simulation time: 0 hr 41 min 58 sec) 
Heartbeat CPU 0 instructions: 360000000 cycles: 126276933 heartbeat IPC: 2.85088 cumulative IPC: 2.85088 (Simulation time: 0 hr 43 min 20 sec) 
Heartbeat CPU 0 instructions: 370000000 cycles: 129784616 heartbeat IPC: 2.85088 cumulative IPC: 2.85088 (Simulation time: 0 hr 44 min 33 sec) 
Heartbeat CPU 0 instructions: 380000004 cycles: 133292304 heartbeat IPC: 2.85088 cumulative IPC: 2.85088 (Simulation time: 0 hr 45 min 34 sec) 
Heartbeat CPU 0 instructions: 390000003 cycles: 136799992 heartbeat IPC: 2.85088 cumulative IPC: 2.85088 (Simulation time: 0 hr 46 min 48 sec) 
Heartbeat CPU 0 instructions: 400000003 cycles: 140307672 heartbeat IPC: 2.85089 cumulative IPC: 2.85088 (Simulation time: 0 hr 48 min 4 sec) 
Heartbeat CPU 0 instructions: 410000003 cycles: 143815411 heartbeat IPC: 2.85084 cumulative IPC: 2.85088 (Simulation time: 0 hr 49 min 19 sec) 
Heartbeat CPU 0 instructions: 420000001 cycles: 147323091 heartbeat IPC: 2.85089 cumulative IPC: 2.85088 (Simulation time: 0 hr 50 min 33 sec) 
Heartbeat CPU 0 instructions: 430000002 cycles: 150830781 heartbeat IPC: 2.85088 cumulative IPC: 2.85088 (Simulation time: 0 hr 51 min 54 sec) 
Heartbeat CPU 0 instructions: 440000004 cycles: 154338467 heartbeat IPC: 2.85088 cumulative IPC: 2.85088 (Simulation time: 0 hr 53 min 16 sec) 
Heartbeat CPU 0 instructions: 450000001 cycles: 157846149 heartbeat IPC: 2.85088 cumulative IPC: 2.85088 (Simulation time: 0 hr 54 min 44 sec) 
Heartbeat CPU 0 instructions: 460000003 cycles: 161353838 heartbeat IPC: 2.85088 cumulative IPC: 2.85088 (Simulation time: 0 hr 56 min 13 sec) 
Heartbeat CPU 0 instructions: 470000002 cycles: 164861519 heartbeat IPC: 2.85089 cumulative IPC: 2.85088 (Simulation time: 0 hr 57 min 41 sec) 
Heartbeat CPU 0 instructions: 480000002 cycles: 168369206 heartbeat IPC: 2.85088 cumulative IPC: 2.85088 (Simulation time: 0 hr 59 min 11 sec) 
Heartbeat CPU 0 instructions: 490000001 cycles: 171876888 heartbeat IPC: 2.85089 cumulative IPC: 2.85088 (Simulation time: 1 hr 0 min 16 sec) 
Heartbeat CPU 0 instructions: 500000001 cycles: 175384575 heartbeat IPC: 2.85088 cumulative IPC: 2.85088 (Simulation time: 1 hr 1 min 18 sec) 

Warmup complete CPU 0 instructions: 500000001 cycles: 175384575 (Simulation time: 1 hr 1 min 18 sec) 

Heartbeat CPU 0 instructions: 510000004 cycles: 184225666 heartbeat IPC: 1.13108 cumulative IPC: 1.13108 (Simulation time: 1 hr 3 min 20 sec) 
Heartbeat CPU 0 instructions: 520000003 cycles: 193037214 heartbeat IPC: 1.13487 cumulative IPC: 1.13298 (Simulation time: 1 hr 5 min 29 sec) 
Heartbeat CPU 0 instructions: 530000004 cycles: 201840624 heartbeat IPC: 1.13592 cumulative IPC: 1.13396 (Simulation time: 1 hr 7 min 36 sec) 
Heartbeat CPU 0 instructions: 540000001 cycles: 210606387 heartbeat IPC: 1.1408 cumulative IPC: 1.13566 (Simulation time: 1 hr 10 min 1 sec) 
Heartbeat CPU 0 instructions: 550000002 cycles: 219450398 heartbeat IPC: 1.13071 cumulative IPC: 1.13467 (Simulation time: 1 hr 12 min 16 sec) 
Heartbeat CPU 0 instructions: 560000004 cycles: 228286134 heartbeat IPC: 1.13177 cumulative IPC: 1.13418 (Simulation time: 1 hr 14 min 42 sec) 
Heartbeat CPU 0 instructions: 570000000 cycles: 237082406 heartbeat IPC: 1.13684 cumulative IPC: 1.13456 (Simulation time: 1 hr 16 min 51 sec) 
Heartbeat CPU 0 instructions: 580000003 cycles: 245821586 heartbeat IPC: 1.14427 cumulative IPC: 1.13577 (Simulation time: 1 hr 19 min 6 sec) 
Heartbeat CPU 0 instructions: 590000003 cycles: 254707380 heartbeat IPC: 1.12539 cumulative IPC: 1.1346 (Simulation time: 1 hr 21 min 14 sec) 
Heartbeat CPU 0 instructions: 600000004 cycles: 263471182 heartbeat IPC: 1.14106 cumulative IPC: 1.13525 (Simulation time: 1 hr 22 min 53 sec) 
Heartbeat CPU 0 instructions: 610000001 cycles: 272286519 heartbeat IPC: 1.13439 cumulative IPC: 1.13517 (Simulation time: 1 hr 25 min 7 sec) 
Heartbeat CPU 0 instructions: 620000002 cycles: 281095723 heartbeat IPC: 1.13518 cumulative IPC: 1.13517 (Simulation time: 1 hr 26 min 59 sec) 
Heartbeat CPU 0 instructions: 630000001 cycles: 289903606 heartbeat IPC: 1.13535 cumulative IPC: 1.13518 (Simulation time: 1 hr 29 min 16 sec) 
Heartbeat CPU 0 instructions: 640000001 cycles: 298726455 heartbeat IPC: 1.13342 cumulative IPC: 1.13506 (Simulation time: 1 hr 31 min 39 sec) 
Heartbeat CPU 0 instructions: 650000003 cycles: 307527407 heartbeat IPC: 1.13624 cumulative IPC: 1.13514 (Simulation time: 1 hr 33 min 55 sec) 
Heartbeat CPU 0 instructions: 660000000 cycles: 316318019 heartbeat IPC: 1.13758 cumulative IPC: 1.13529 (Simulation time: 1 hr 36 min 19 sec) 
Heartbeat CPU 0 instructions: 670000003 cycles: 325204744 heartbeat IPC: 1.12527 cumulative IPC: 1.13469 (Simulation time: 1 hr 38 min 36 sec) 
Heartbeat CPU 0 instructions: 680000003 cycles: 333972494 heartbeat IPC: 1.14054 cumulative IPC: 1.13502 (Simulation time: 1 hr 40 min 39 sec) 
Heartbeat CPU 0 instructions: 690000000 cycles: 342737760 heartbeat IPC: 1.14087 cumulative IPC: 1.13532 (Simulation time: 1 hr 42 min 32 sec) 
Heartbeat CPU 0 instructions: 700000001 cycles: 351552582 heartbeat IPC: 1.13445 cumulative IPC: 1.13528 (Simulation time: 1 hr 44 min 51 sec) 
Heartbeat CPU 0 instructions: 710000002 cycles: 360364232 heartbeat IPC: 1.13486 cumulative IPC: 1.13526 (Simulation time: 1 hr 46 min 52 sec) 
Heartbeat CPU 0 instructions: 720000004 cycles: 369146558 heartbeat IPC: 1.13865 cumulative IPC: 1.13541 (Simulation time: 1 hr 49 min 1 sec) 
Heartbeat CPU 0 instructions: 730000003 cycles: 377918177 heartbeat IPC: 1.14004 cumulative IPC: 1.13561 (Simulation time: 1 hr 51 min 27 sec) 
Heartbeat CPU 0 instructions: 740000003 cycles: 386745586 heartbeat IPC: 1.13284 cumulative IPC: 1.1355 (Simulation time: 1 hr 53 min 42 sec) 
Heartbeat CPU 0 instructions: 750000001 cycles: 395599551 heartbeat IPC: 1.12944 cumulative IPC: 1.13525 (Simulation time: 1 hr 55 min 28 sec) 
Heartbeat CPU 0 instructions: 760000001 cycles: 404406014 heartbeat IPC: 1.13553 cumulative IPC: 1.13526 (Simulation time: 1 hr 57 min 57 sec) 
Heartbeat CPU 0 instructions: 770000003 cycles: 413218450 heartbeat IPC: 1.13476 cumulative IPC: 1.13525 (Simulation time: 2 hr 0 min 17 sec) 
Heartbeat CPU 0 instructions: 780000003 cycles: 422144748 heartbeat IPC: 1.12029 cumulative IPC: 1.1347 (Simulation time: 2 hr 2 min 32 sec) 
Heartbeat CPU 0 instructions: 790000001 cycles: 430941634 heartbeat IPC: 1.13677 cumulative IPC: 1.13478 (Simulation time: 2 hr 4 min 47 sec) 
Heartbeat CPU 0 instructions: 800000003 cycles: 439779858 heartbeat IPC: 1.13145 cumulative IPC: 1.13466 (Simulation time: 2 hr 6 min 54 sec) 
Heartbeat CPU 0 instructions: 810000004 cycles: 448617435 heartbeat IPC: 1.13153 cumulative IPC: 1.13456 (Simulation time: 2 hr 8 min 59 sec) 
Heartbeat CPU 0 instructions: 820000000 cycles: 457392052 heartbeat IPC: 1.13965 cumulative IPC: 1.13472 (Simulation time: 2 hr 11 min 25 sec) 
Heartbeat CPU 0 instructions: 830000001 cycles: 466206392 heartbeat IPC: 1.13452 cumulative IPC: 1.13472 (Simulation time: 2 hr 13 min 35 sec) 
Heartbeat CPU 0 instructions: 840000001 cycles: 474974742 heartbeat IPC: 1.14047 cumulative IPC: 1.13488 (Simulation time: 2 hr 15 min 45 sec) 
Heartbeat CPU 0 instructions: 850000002 cycles: 483832004 heartbeat IPC: 1.12902 cumulative IPC: 1.13472 (Simulation time: 2 hr 18 min 10 sec) 
Heartbeat CPU 0 instructions: 860000004 cycles: 492663885 heartbeat IPC: 1.13226 cumulative IPC: 1.13465 (Simulation time: 2 hr 20 min 28 sec) 
Heartbeat CPU 0 instructions: 870000000 cycles: 501480907 heartbeat IPC: 1.13417 cumulative IPC: 1.13463 (Simulation time: 2 hr 22 min 54 sec) 
Heartbeat CPU 0 instructions: 880000001 cycles: 510308270 heartbeat IPC: 1.13284 cumulative IPC: 1.13459 (Simulation time: 2 hr 25 min 18 sec) 
Heartbeat CPU 0 instructions: 890000002 cycles: 519143905 heartbeat IPC: 1.13178 cumulative IPC: 1.13451 (Simulation time: 2 hr 27 min 40 sec) 
Heartbeat CPU 0 instructions: 900000003 cycles: 527911907 heartbeat IPC: 1.14051 cumulative IPC: 1.13466 (Simulation time: 2 hr 29 min 18 sec) 
Heartbeat CPU 0 instructions: 910000001 cycles: 536792700 heartbeat IPC: 1.12603 cumulative IPC: 1.13445 (Simulation time: 2 hr 30 min 47 sec) 
Heartbeat CPU 0 instructions: 920000002 cycles: 545557748 heartbeat IPC: 1.1409 cumulative IPC: 1.1346 (Simulation time: 2 hr 32 min 21 sec) 
Heartbeat CPU 0 instructions: 930000000 cycles: 554355516 heartbeat IPC: 1.13665 cumulative IPC: 1.13465 (Simulation time: 2 hr 34 min 3 sec) 
Heartbeat CPU 0 instructions: 940000000 cycles: 563251280 heartbeat IPC: 1.12413 cumulative IPC: 1.13441 (Simulation time: 2 hr 35 min 32 sec) 
Heartbeat CPU 0 instructions: 950000003 cycles: 572025906 heartbeat IPC: 1.13965 cumulative IPC: 1.13453 (Simulation time: 2 hr 36 min 58 sec) 
Heartbeat CPU 0 instructions: 960000003 cycles: 580814171 heartbeat IPC: 1.13788 cumulative IPC: 1.1346 (Simulation time: 2 hr 38 min 24 sec) 
Heartbeat CPU 0 instructions: 970000002 cycles: 589650808 heartbeat IPC: 1.13165 cumulative IPC: 1.13454 (Simulation time: 2 hr 39 min 52 sec) 
Heartbeat CPU 0 instructions: 980000003 cycles: 598471820 heartbeat IPC: 1.13366 cumulative IPC: 1.13452 (Simulation time: 2 hr 41 min 18 sec) 
Heartbeat CPU 0 instructions: 990000002 cycles: 607290599 heartbeat IPC: 1.13394 cumulative IPC: 1.13451 (Simulation time: 2 hr 42 min 48 sec) 
Heartbeat CPU 0 instructions: 1000000001 cycles: 616099705 heartbeat IPC: 1.13519 cumulative IPC: 1.13452 (Simulation time: 2 hr 44 min 18 sec) 
Heartbeat CPU 0 instructions: 1010000002 cycles: 624867609 heartbeat IPC: 1.14052 cumulative IPC: 1.13464 (Simulation time: 2 hr 45 min 57 sec) 
Heartbeat CPU 0 instructions: 1020000004 cycles: 633641646 heartbeat IPC: 1.13973 cumulative IPC: 1.13473 (Simulation time: 2 hr 47 min 37 sec) 
Heartbeat CPU 0 instructions: 1030000000 cycles: 642453592 heartbeat IPC: 1.13482 cumulative IPC: 1.13474 (Simulation time: 2 hr 49 min 6 sec) 
Heartbeat CPU 0 instructions: 1040000002 cycles: 651308244 heartbeat IPC: 1.12935 cumulative IPC: 1.13464 (Simulation time: 2 hr 50 min 32 sec) 
Heartbeat CPU 0 instructions: 1050000003 cycles: 660109303 heartbeat IPC: 1.13623 cumulative IPC: 1.13466 (Simulation time: 2 hr 51 min 56 sec) 
Heartbeat CPU 0 instructions: 1060000002 cycles: 668881335 heartbeat IPC: 1.13999 cumulative IPC: 1.13476 (Simulation time: 2 hr 53 min 31 sec) 
Heartbeat CPU 0 instructions: 1070000001 cycles: 677796199 heartbeat IPC: 1.12172 cumulative IPC: 1.13453 (Simulation time: 2 hr 54 min 57 sec) 
Heartbeat CPU 0 instructions: 1080000004 cycles: 686639203 heartbeat IPC: 1.13084 cumulative IPC: 1.13446 (Simulation time: 2 hr 56 min 22 sec) 
Heartbeat CPU 0 instructions: 1090000000 cycles: 695410709 heartbeat IPC: 1.14005 cumulative IPC: 1.13456 (Simulation time: 2 hr 57 min 47 sec) 
Heartbeat CPU 0 instructions: 1100000003 cycles: 704262474 heartbeat IPC: 1.12972 cumulative IPC: 1.13448 (Simulation time: 2 hr 59 min 11 sec) 
Heartbeat CPU 0 instructions: 1110000004 cycles: 713072788 heartbeat IPC: 1.13503 cumulative IPC: 1.13449 (Simulation time: 3 hr 0 min 35 sec) 
Heartbeat CPU 0 instructions: 1120000000 cycles: 721872078 heartbeat IPC: 1.13645 cumulative IPC: 1.13452 (Simulation time: 3 hr 1 min 59 sec) 
Heartbeat CPU 0 instructions: 1130000001 cycles: 730647341 heartbeat IPC: 1.13957 cumulative IPC: 1.1346 (Simulation time: 3 hr 3 min 23 sec) 
Heartbeat CPU 0 instructions: 1140000002 cycles: 739392327 heartbeat IPC: 1.14351 cumulative IPC: 1.13474 (Simulation time: 3 hr 4 min 46 sec) 
Heartbeat CPU 0 instructions: 1150000003 cycles: 748231279 heartbeat IPC: 1.13136 cumulative IPC: 1.13468 (Simulation time: 3 hr 6 min 10 sec) 
Heartbeat CPU 0 instructions: 1160000001 cycles: 757059165 heartbeat IPC: 1.13277 cumulative IPC: 1.13465 (Simulation time: 3 hr 7 min 34 sec) 
Heartbeat CPU 0 instructions: 1170000004 cycles: 765853144 heartbeat IPC: 1.13714 cumulative IPC: 1.13469 (Simulation time: 3 hr 8 min 58 sec) 
Heartbeat CPU 0 instructions: 1180000002 cycles: 774664922 heartbeat IPC: 1.13484 cumulative IPC: 1.13469 (Simulation time: 3 hr 10 min 22 sec) 
Heartbeat CPU 0 instructions: 1190000003 cycles: 783469080 heartbeat IPC: 1.13583 cumulative IPC: 1.13471 (Simulation time: 3 hr 11 min 45 sec) 
Heartbeat CPU 0 instructions: 1200000003 cycles: 792284628 heartbeat IPC: 1.13436 cumulative IPC: 1.13471 (Simulation time: 3 hr 13 min 9 sec) 
Heartbeat CPU 0 instructions: 1210000001 cycles: 801127934 heartbeat IPC: 1.1308 cumulative IPC: 1.13465 (Simulation time: 3 hr 14 min 33 sec) 
Heartbeat CPU 0 instructions: 1220000002 cycles: 809892237 heartbeat IPC: 1.14099 cumulative IPC: 1.13474 (Simulation time: 3 hr 15 min 57 sec) 
Heartbeat CPU 0 instructions: 1230000004 cycles: 818677498 heartbeat IPC: 1.13827 cumulative IPC: 1.13479 (Simulation time: 3 hr 17 min 20 sec) 
Heartbeat CPU 0 instructions: 1240000000 cycles: 827490539 heartbeat IPC: 1.13468 cumulative IPC: 1.13478 (Simulation time: 3 hr 18 min 44 sec) 
Heartbeat CPU 0 instructions: 1250000001 cycles: 836285050 heartbeat IPC: 1.13707 cumulative IPC: 1.13482 (Simulation time: 3 hr 20 min 7 sec) 
Heartbeat CPU 0 instructions: 1260000003 cycles: 845073973 heartbeat IPC: 1.1378 cumulative IPC: 1.13485 (Simulation time: 3 hr 21 min 31 sec) 
Heartbeat CPU 0 instructions: 1270000004 cycles: 853830884 heartbeat IPC: 1.14196 cumulative IPC: 1.13495 (Simulation time: 3 hr 22 min 54 sec) 
Heartbeat CPU 0 instructions: 1280000003 cycles: 862645555 heartbeat IPC: 1.13447 cumulative IPC: 1.13494 (Simulation time: 3 hr 24 min 17 sec) 
Heartbeat CPU 0 instructions: 1290000003 cycles: 871458649 heartbeat IPC: 1.13468 cumulative IPC: 1.13494 (Simulation time: 3 hr 25 min 41 sec) 
Heartbeat CPU 0 instructions: 1300000001 cycles: 880304794 heartbeat IPC: 1.13044 cumulative IPC: 1.13488 (Simulation time: 3 hr 27 min 4 sec) 
Heartbeat CPU 0 instructions: 1310000000 cycles: 889125676 heartbeat IPC: 1.13367 cumulative IPC: 1.13487 (Simulation time: 3 hr 28 min 28 sec) 
Heartbeat CPU 0 instructions: 1320000004 cycles: 897916034 heartbeat IPC: 1.13761 cumulative IPC: 1.1349 (Simulation time: 3 hr 29 min 51 sec) 
Heartbeat CPU 0 instructions: 1330000000 cycles: 906697243 heartbeat IPC: 1.13879 cumulative IPC: 1.13495 (Simulation time: 3 hr 31 min 14 sec) 
Heartbeat CPU 0 instructions: 1340000002 cycles: 915535819 heartbeat IPC: 1.1314 cumulative IPC: 1.1349 (Simulation time: 3 hr 32 min 38 sec) 
Heartbeat CPU 0 instructions: 1350000003 cycles: 924281813 heartbeat IPC: 1.14338 cumulative IPC: 1.135 (Simulation time: 3 hr 34 min 1 sec) 
Heartbeat CPU 0 instructions: 1360000004 cycles: 933087148 heartbeat IPC: 1.13568 cumulative IPC: 1.13501 (Simulation time: 3 hr 35 min 25 sec) 
Heartbeat CPU 0 instructions: 1370000001 cycles: 941928688 heartbeat IPC: 1.13102 cumulative IPC: 1.13496 (Simulation time: 3 hr 36 min 49 sec) 
Heartbeat CPU 0 instructions: 1380000000 cycles: 950790185 heartbeat IPC: 1.12848 cumulative IPC: 1.13489 (Simulation time: 3 hr 38 min 12 sec) 
Heartbeat CPU 0 instructions: 1390000001 cycles: 959590807 heartbeat IPC: 1.13628 cumulative IPC: 1.13491 (Simulation time: 3 hr 39 min 36 sec) 
Heartbeat CPU 0 instructions: 1400000003 cycles: 968494015 heartbeat IPC: 1.12319 cumulative IPC: 1.13477 (Simulation time: 3 hr 41 min 0 sec) 
Heartbeat CPU 0 instructions: 1410000003 cycles: 977269263 heartbeat IPC: 1.13957 cumulative IPC: 1.13483 (Simulation time: 3 hr 42 min 23 sec) 
Heartbeat CPU 0 instructions: 1420000000 cycles: 986075415 heartbeat IPC: 1.13557 cumulative IPC: 1.13483 (Simulation time: 3 hr 43 min 47 sec) 
Heartbeat CPU 0 instructions: 1430000002 cycles: 994914446 heartbeat IPC: 1.13135 cumulative IPC: 1.1348 (Simulation time: 3 hr 45 min 11 sec) 
Heartbeat CPU 0 instructions: 1440000002 cycles: 1003704194 heartbeat IPC: 1.13769 cumulative IPC: 1.13483 (Simulation time: 3 hr 46 min 36 sec) 
Heartbeat CPU 0 instructions: 1450000000 cycles: 1012532672 heartbeat IPC: 1.1327 cumulative IPC: 1.13481 (Simulation time: 3 hr 48 min 0 sec) 
Heartbeat CPU 0 instructions: 1460000000 cycles: 1021306762 heartbeat IPC: 1.13972 cumulative IPC: 1.13486 (Simulation time: 3 hr 49 min 24 sec) 
Heartbeat CPU 0 instructions: 1470000001 cycles: 1030099897 heartbeat IPC: 1.13725 cumulative IPC: 1.13488 (Simulation time: 3 hr 50 min 49 sec) 
Heartbeat CPU 0 instructions: 1480000001 cycles: 1038964341 heartbeat IPC: 1.1281 cumulative IPC: 1.13481 (Simulation time: 3 hr 52 min 13 sec) 
Heartbeat CPU 0 instructions: 1490000003 cycles: 1047751872 heartbeat IPC: 1.13798 cumulative IPC: 1.13484 (Simulation time: 3 hr 53 min 37 sec) 
Heartbeat CPU 0 instructions: 1500000003 cycles: 1056529819 heartbeat IPC: 1.13922 cumulative IPC: 1.13489 (Simulation time: 3 hr 55 min 1 sec) 
Heartbeat CPU 0 instructions: 1510000001 cycles: 1065352560 heartbeat IPC: 1.13343 cumulative IPC: 1.13487 (Simulation time: 3 hr 56 min 25 sec) 
Heartbeat CPU 0 instructions: 1520000001 cycles: 1074165899 heartbeat IPC: 1.13464 cumulative IPC: 1.13487 (Simulation time: 3 hr 57 min 49 sec) 
Heartbeat CPU 0 instructions: 1530000004 cycles: 1082959771 heartbeat IPC: 1.13716 cumulative IPC: 1.13489 (Simulation time: 3 hr 59 min 13 sec) 
Heartbeat CPU 0 instructions: 1540000000 cycles: 1091731171 heartbeat IPC: 1.14007 cumulative IPC: 1.13494 (Simulation time: 4 hr 0 min 37 sec) 
Heartbeat CPU 0 instructions: 1550000000 cycles: 1100553130 heartbeat IPC: 1.13354 cumulative IPC: 1.13493 (Simulation time: 4 hr 2 min 1 sec) 
Heartbeat CPU 0 instructions: 1560000002 cycles: 1109335344 heartbeat IPC: 1.13867 cumulative IPC: 1.13496 (Simulation time: 4 hr 3 min 25 sec) 
Heartbeat CPU 0 instructions: 1570000004 cycles: 1118182675 heartbeat IPC: 1.13028 cumulative IPC: 1.13492 (Simulation time: 4 hr 4 min 50 sec) 
Heartbeat CPU 0 instructions: 1580000004 cycles: 1126975789 heartbeat IPC: 1.13725 cumulative IPC: 1.13494 (Simulation time: 4 hr 6 min 15 sec) 
Heartbeat CPU 0 instructions: 1590000001 cycles: 1135782688 heartbeat IPC: 1.13547 cumulative IPC: 1.13495 (Simulation time: 4 hr 7 min 39 sec) 
Heartbeat CPU 0 instructions: 1600000001 cycles: 1144629522 heartbeat IPC: 1.13035 cumulative IPC: 1.1349 (Simulation time: 4 hr 9 min 4 sec) 
Heartbeat CPU 0 instructions: 1610000002 cycles: 1153433946 heartbeat IPC: 1.13579 cumulative IPC: 1.13491 (Simulation time: 4 hr 10 min 27 sec) 
Heartbeat CPU 0 instructions: 1620000003 cycles: 1162330857 heartbeat IPC: 1.12399 cumulative IPC: 1.13481 (Simulation time: 4 hr 11 min 51 sec) 
Heartbeat CPU 0 instructions: 1630000000 cycles: 1171095170 heartbeat IPC: 1.14099 cumulative IPC: 1.13487 (Simulation time: 4 hr 13 min 14 sec) 
Heartbeat CPU 0 instructions: 1640000002 cycles: 1179897589 heartbeat IPC: 1.13605 cumulative IPC: 1.13488 (Simulation time: 4 hr 14 min 38 sec) 
Heartbeat CPU 0 instructions: 1650000003 cycles: 1188738396 heartbeat IPC: 1.13112 cumulative IPC: 1.13485 (Simulation time: 4 hr 16 min 1 sec) 
Heartbeat CPU 0 instructions: 1660000000 cycles: 1197552052 heartbeat IPC: 1.1346 cumulative IPC: 1.13484 (Simulation time: 4 hr 17 min 25 sec) 
Heartbeat CPU 0 instructions: 1670000001 cycles: 1206341074 heartbeat IPC: 1.13778 cumulative IPC: 1.13487 (Simulation time: 4 hr 18 min 48 sec) 
Heartbeat CPU 0 instructions: 1680000002 cycles: 1215236232 heartbeat IPC: 1.12421 cumulative IPC: 1.13478 (Simulation time: 4 hr 20 min 13 sec) 
Heartbeat CPU 0 instructions: 1690000004 cycles: 1224004448 heartbeat IPC: 1.14048 cumulative IPC: 1.13482 (Simulation time: 4 hr 21 min 37 sec) 
Heartbeat CPU 0 instructions: 1700000000 cycles: 1232779857 heartbeat IPC: 1.13955 cumulative IPC: 1.13486 (Simulation time: 4 hr 23 min 0 sec) 
Heartbeat CPU 0 instructions: 1710000003 cycles: 1241595089 heartbeat IPC: 1.1344 cumulative IPC: 1.13486 (Simulation time: 4 hr 24 min 23 sec) 
Heartbeat CPU 0 instructions: 1720000004 cycles: 1250421703 heartbeat IPC: 1.13294 cumulative IPC: 1.13484 (Simulation time: 4 hr 25 min 47 sec) 
Heartbeat CPU 0 instructions: 1730000002 cycles: 1259217290 heartbeat IPC: 1.13693 cumulative IPC: 1.13486 (Simulation time: 4 hr 27 min 11 sec) 
Heartbeat CPU 0 instructions: 1740000003 cycles: 1268084354 heartbeat IPC: 1.12777 cumulative IPC: 1.1348 (Simulation time: 4 hr 28 min 34 sec) 
Heartbeat CPU 0 instructions: 1750000002 cycles: 1276941196 heartbeat IPC: 1.12907 cumulative IPC: 1.13476 (Simulation time: 4 hr 29 min 58 sec) 
Heartbeat CPU 0 instructions: 1760000001 cycles: 1285801410 heartbeat IPC: 1.12864 cumulative IPC: 1.13471 (Simulation time: 4 hr 31 min 22 sec) 
Heartbeat CPU 0 instructions: 1770000001 cycles: 1294700860 heartbeat IPC: 1.12366 cumulative IPC: 1.13462 (Simulation time: 4 hr 32 min 46 sec) 
Heartbeat CPU 0 instructions: 1780000004 cycles: 1303506682 heartbeat IPC: 1.13561 cumulative IPC: 1.13463 (Simulation time: 4 hr 34 min 10 sec) 
Heartbeat CPU 0 instructions: 1790000002 cycles: 1312368971 heartbeat IPC: 1.12838 cumulative IPC: 1.13458 (Simulation time: 4 hr 35 min 35 sec) 
Heartbeat CPU 0 instructions: 1800000002 cycles: 1321184520 heartbeat IPC: 1.13436 cumulative IPC: 1.13458 (Simulation time: 4 hr 36 min 59 sec) 
Heartbeat CPU 0 instructions: 1810000003 cycles: 1330013771 heartbeat IPC: 1.1326 cumulative IPC: 1.13456 (Simulation time: 4 hr 38 min 22 sec) 
Heartbeat CPU 0 instructions: 1820000002 cycles: 1338806181 heartbeat IPC: 1.13734 cumulative IPC: 1.13458 (Simulation time: 4 hr 39 min 46 sec) 
Heartbeat CPU 0 instructions: 1830000004 cycles: 1347614917 heartbeat IPC: 1.13524 cumulative IPC: 1.13459 (Simulation time: 4 hr 41 min 10 sec) 
Heartbeat CPU 0 instructions: 1840000000 cycles: 1356436464 heartbeat IPC: 1.13359 cumulative IPC: 1.13458 (Simulation time: 4 hr 42 min 34 sec) 
Heartbeat CPU 0 instructions: 1850000001 cycles: 1365210177 heartbeat IPC: 1.13977 cumulative IPC: 1.13462 (Simulation time: 4 hr 43 min 58 sec) 
Heartbeat CPU 0 instructions: 1860000003 cycles: 1374041754 heartbeat IPC: 1.1323 cumulative IPC: 1.1346 (Simulation time: 4 hr 45 min 22 sec) 
Heartbeat CPU 0 instructions: 1870000003 cycles: 1382855236 heartbeat IPC: 1.13463 cumulative IPC: 1.1346 (Simulation time: 4 hr 46 min 45 sec) 
Heartbeat CPU 0 instructions: 1880000001 cycles: 1391727612 heartbeat IPC: 1.12709 cumulative IPC: 1.13455 (Simulation time: 4 hr 48 min 10 sec) 
Heartbeat CPU 0 instructions: 1890000002 cycles: 1400501009 heartbeat IPC: 1.13981 cumulative IPC: 1.13459 (Simulation time: 4 hr 49 min 34 sec) 
Heartbeat CPU 0 instructions: 1900000001 cycles: 1409353457 heartbeat IPC: 1.12963 cumulative IPC: 1.13455 (Simulation time: 4 hr 50 min 58 sec) 
Heartbeat CPU 0 instructions: 1910000000 cycles: 1418130053 heartbeat IPC: 1.13939 cumulative IPC: 1.13458 (Simulation time: 4 hr 52 min 22 sec) 
Heartbeat CPU 0 instructions: 1920000001 cycles: 1426951159 heartbeat IPC: 1.13364 cumulative IPC: 1.13458 (Simulation time: 4 hr 53 min 46 sec) 
Heartbeat CPU 0 instructions: 1930000000 cycles: 1435717738 heartbeat IPC: 1.1407 cumulative IPC: 1.13462 (Simulation time: 4 hr 55 min 10 sec) 
Heartbeat CPU 0 instructions: 1940000002 cycles: 1444557454 heartbeat IPC: 1.13126 cumulative IPC: 1.1346 (Simulation time: 4 hr 56 min 34 sec) 
Heartbeat CPU 0 instructions: 1950000003 cycles: 1453351014 heartbeat IPC: 1.1372 cumulative IPC: 1.13462 (Simulation time: 4 hr 57 min 59 sec) 
Heartbeat CPU 0 instructions: 1960000002 cycles: 1462108384 heartbeat IPC: 1.1419 cumulative IPC: 1.13466 (Simulation time: 4 hr 59 min 22 sec) 
Heartbeat CPU 0 instructions: 1970000000 cycles: 1470980018 heartbeat IPC: 1.12719 cumulative IPC: 1.13461 (Simulation time: 5 hr 0 min 47 sec) 
Heartbeat CPU 0 instructions: 1980000004 cycles: 1479760840 heartbeat IPC: 1.13885 cumulative IPC: 1.13464 (Simulation time: 5 hr 2 min 11 sec) 
Heartbeat CPU 0 instructions: 1990000003 cycles: 1488541967 heartbeat IPC: 1.13881 cumulative IPC: 1.13467 (Simulation time: 5 hr 3 min 36 sec) 
*** Reached end of trace: traces/649.fotonik3d_s-8225B.champsimtrace.xz
Heartbeat CPU 0 instructions: 2000000000 cycles: 1497359963 heartbeat IPC: 1.13404 cumulative IPC: 1.13467 (Simulation time: 5 hr 5 min 0 sec) 
Finished CPU 0 instructions: 1500000004 cycles: 1321975389 cumulative IPC: 1.13467 (Simulation time: 5 hr 5 min 0 sec) 

ChampSim completed all CPUs

Region of Interest Statistics

CPU 0 cumulative IPC: 1.13467 instructions: 1500000004 cycles: 1321975389
cpu0_DTLB TOTAL     ACCESS:  250285630  HIT:  249934532  MISS:     351098
cpu0_DTLB LOAD      ACCESS:  217352421  HIT:  217004612  MISS:     347809
cpu0_DTLB RFO       ACCESS:   32933209  HIT:   32929920  MISS:       3289
cpu0_DTLB PREFETCH  ACCESS:          0  HIT:          0  MISS:          0
cpu0_DTLB WRITEBACK ACCESS:          0  HIT:          0  MISS:          0
cpu0_DTLB TRANSLATION ACCESS:          0  HIT:          0  MISS:          0
cpu0_DTLB PREFETCH  REQUESTED:          0  ISSUED:          0  USEFUL:          0  USELESS:          0
cpu0_DTLB AVERAGE MISS LATENCY: 131.663 cycles
cpu0_ITLB TOTAL     ACCESS:     275819  HIT:     275819  MISS:          0
cpu0_ITLB LOAD      ACCESS:     275819  HIT:     275819  MISS:          0
cpu0_ITLB RFO       ACCESS:          0  HIT:          0  MISS:          0
cpu0_ITLB PREFETCH  ACCESS:          0  HIT:          0  MISS:          0
cpu0_ITLB WRITEBACK ACCESS:          0  HIT:          0  MISS:          0
cpu0_ITLB TRANSLATION ACCESS:          0  HIT:          0  MISS:          0
cpu0_ITLB PREFETCH  REQUESTED:          0  ISSUED:          0  USEFUL:          0  USELESS:          0
cpu0_ITLB AVERAGE MISS LATENCY: -nan cycles
cpu0_L1I TOTAL     ACCESS:       7569  HIT:       7569  MISS:          0
cpu0_L1I LOAD      ACCESS:       7569  HIT:       7569  MISS:          0
cpu0_L1I RFO       ACCESS:          0  HIT:          0  MISS:          0
cpu0_L1I PREFETCH  ACCESS:          0  HIT:          0  MISS:          0
cpu0_L1I WRITEBACK ACCESS:          0  HIT:          0  MISS:          0
cpu0_L1I TRANSLATION ACCESS:          0  HIT:          0  MISS:          0
cpu0_L1I PREFETCH  REQUESTED:          0  ISSUED:          0  USEFUL:          0  USELESS:          0
cpu0_L1I AVERAGE MISS LATENCY: -nan cycles
cpu0_STLB TOTAL     ACCESS:     351098  HIT:     145244  MISS:     205854
cpu0_STLB LOAD      ACCESS:     347809  HIT:     141955  MISS:     205854
cpu0_STLB RFO       ACCESS:       3289  HIT:       3289  MISS:          0
cpu0_STLB PREFETCH  ACCESS:          0  HIT:          0  MISS:          0
cpu0_STLB WRITEBACK ACCESS:          0  HIT:          0  MISS:          0
cpu0_STLB TRANSLATION ACCESS:          0  HIT:          0  MISS:          0
cpu0_STLB PREFETCH  REQUESTED:          0  ISSUED:          0  USEFUL:          0  USELESS:          0
cpu0_STLB AVERAGE MISS LATENCY: 209.185 cycles
cpu0_L1D TOTAL     ACCESS:  308262901  HIT:  288405286  MISS:   19857615
cpu0_L1D LOAD      ACCESS:  202785847  HIT:  182954905  MISS:   19830942
cpu0_L1D RFO       ACCESS:  105271204  HIT:  105251488  MISS:      19716
cpu0_L1D PREFETCH  ACCESS:          0  HIT:          0  MISS:          0
cpu0_L1D WRITEBACK ACCESS:          0  HIT:          0  MISS:          0
cpu0_L1D TRANSLATION ACCESS:     205850  HIT:     198893  MISS:       6957
cpu0_L1D PREFETCH  REQUESTED:          0  ISSUED:          0  USEFUL:          0  USELESS:          0
cpu0_L1D AVERAGE MISS LATENCY: 172.664 cycles
cpu0_L2C TOTAL     ACCESS:   33038362  HIT:   18559006  MISS:   14479356
cpu0_L2C LOAD      ACCESS:   19830942  HIT:    5359757  MISS:   14471185
cpu0_L2C RFO       ACCESS:      19716  HIT:      14798  MISS:       4918
cpu0_L2C PREFETCH  ACCESS:          0  HIT:          0  MISS:          0
cpu0_L2C WRITEBACK ACCESS:   13180747  HIT:   13180747  MISS:          0
cpu0_L2C TRANSLATION ACCESS:       6957  HIT:       3704  MISS:       3253
cpu0_L2C PREFETCH  REQUESTED:          0  ISSUED:          0  USEFUL:          0  USELESS:          0
cpu0_L2C AVERAGE MISS LATENCY: 221.707 cycles
LLC TOTAL     ACCESS:   27632976  HIT:   14243219  MISS:   13389757
LLC LOAD      ACCESS:   14471185  HIT:    1082429  MISS:   13388756
LLC RFO       ACCESS:       4918  HIT:       4891  MISS:         27
LLC PREFETCH  ACCESS:          0  HIT:          0  MISS:          0
LLC WRITEBACK ACCESS:   13153620  HIT:   13153124  MISS:        496
LLC TRANSLATION ACCESS:       3253  HIT:       2775  MISS:        478
LLC PREFETCH  REQUESTED:          0  ISSUED:          0  USEFUL:          0  USELESS:          0
LLC AVERAGE MISS LATENCY: 217.039 cycles
~~~~~~~~~~Reuse Distance Profiler output~~~~~~~~~~
0	80950688	10442480
1	28678464	18303936
2	61315712	39089776
3	47418144	35019008
4	51898128	36840736
5	39394032	38223824
6	25785968	23915408
7	29029712	28913520
8	23700480	23650144
9	5060064	4975232
10	13415632	13327920
11	6277664	6230912
12	5357648	5300224
13	1812240	1775776
14	663328	616224
15	578032	489504
16	415952	312688
17	2982768	2168096
18	3952640	1968480
19	147872	72240
20	33600	18096
21	75264	47248
22	185248	23920
23	103760	52192
24	629040	575584
25	582496	13776
26	1958000	57680
27	493264	492320
28	41984	40512
29	62896	58064
30	15952	4608
31	87504	21968
32	1242480	1214816
33	48048	6928
34	148016	2448
35	35808	1136
36	40416	36096
37	12416	832
38	1232	336
39	8016	6352
40	2960	496
41	1856	176
42	9184	8592
43	5184	2384
44	2416	928
45	752	96
46	688	48
47	720	432
48	1264	32
49	2032	0
50	512	0
51	480	0
52	544	144
53	256	0
54	272	0
55	256	0
56	160	0
57	144	0
58	48	0
59	32	0
60	32	0
61	0	0
62	0	0
63	0	0
64	0	0
66	0	0
68	0	0
70	0	0
72	0	0
74	0	0
76	0	0
78	0	0
80	0	0
82	16	0
84	32	0
86	64	0
88	80	0
90	176	0
92	208	0
94	256	0
96	288	0
98	432	0
100	432	0
102	448	0
104	512	0
106	240	0
108	32	0
110	80	0
112	0	0
114	16	0
116	0	0
118	0	0
120	0	0
122	0	0
124	0	0
126	0	0
128	0	0
132	0	0
136	0	0
140	0	0
144	0	0
148	0	0
152	0	0
156	0	0
160	0	0
164	0	0
168	0	0
172	0	0
176	0	0
180	0	0
184	0	0
188	0	0
192	0	0
196	0	0
200	0	0
204	0	0
208	0	0
212	0	0
216	0	0
220	0	0
224	0	0
228	0	0
232	0	0
236	0	0
240	0	0
244	0	0
248	0	0
252	0	0
256	0	0
264	0	0
272	0	0
280	0	0
288	0	0
296	0	0
304	0	0
312	0	0
320	0	0
328	0	0
336	0	0
344	0	0
352	0	0
360	0	0
368	0	0
376	0	0
384	0	0
392	0	0
400	0	0
408	0	0
416	0	0
424	0	0
432	0	0
440	0	0
448	0	0
456	0	0
464	0	0
472	0	0
480	0	0
488	0	0
496	0	0
504	0	0
512	0	0
528	0	0
544	0	0
560	0	0
576	0	0
592	0	0
608	0	0
624	0	0
640	0	0
656	0	0
672	0	0
688	0	0
704	0	0
720	0	0
736	0	0
752	0	0
768	0	0
784	0	0
800	0	0
816	0	0
832	0	0
848	0	0
864	0	0
880	0	0
896	0	0
912	0	0
928	0	0
944	0	0
960	0	0
976	0	0
992	0	0
1008	0	0
1024	0	0
1056	0	0
1088	0	0
1120	0	0
1152	0	0
1184	0	0
1216	0	0
1248	0	0
1280	0	0
1312	0	0
1344	0	0
1376	0	0
1408	0	0
1440	0	0
1472	0	0
1504	0	0
1536	0	0
1568	0	0
1600	0	0
1632	0	0
1664	0	0
1696	0	0
1728	0	0
1760	0	0
1792	0	0
1824	0	0
1856	0	0
1888	0	0
1920	0	0
1952	0	0
1984	0	0
2016	0	0
2048	0	0
2112	0	0
2176	0	0
2240	0	0
2304	0	0
2368	0	0
2432	0	0
2496	0	0
2560	0	0
2624	0	0
2688	0	0
2752	0	0
2816	0	0
2880	0	0
2944	0	0
3008	0	0
3072	0	0
3136	0	0
3200	0	0
3264	0	0
3328	0	0
3392	0	0
3456	0	0
3520	0	0
3584	0	0
3648	0	0
3712	0	0
3776	0	0
3840	0	0
3904	0	0
3968	0	0
4032	0	0
4096	0	0
4224	0	0
4352	0	0
4480	0	0
4608	0	0
4736	0	0
4864	0	0
4992	0	0
5120	0	0
5248	0	0
5376	0	0
5504	0	0
5632	0	0
5760	0	0
5888	0	0
6016	0	0
6144	0	0
6272	0	0
6400	0	0
6528	0	0
6656	0	0
6784	0	0
6912	0	0
7040	0	0
7168	0	0
7296	0	0
7424	0	0
7552	0	0
7680	0	0
7808	0	0
7936	0	0
8064	0	0
8192	0	0
8448	0	0
8704	0	0
8960	0	0
9216	0	0
9472	0	0
9728	0	0
9984	0	0
10240	0	0
10496	0	0
10752	0	0
11008	0	0
11264	0	0
11520	0	0
11776	0	0
12032	0	0
12288	0	0
12544	0	0
12800	0	0
13056	0	0
13312	0	0
13568	0	0
13824	0	0
14080	0	0
14336	0	0
14592	0	0
14848	0	0
15104	0	0
15360	0	0
15616	0	0
15872	0	0
16128	0	0
16384	0	0
16896	0	0
17408	0	0
17920	0	0
18432	0	0
18944	0	0
19456	0	0
19968	0	0
20480	0	0
20992	0	0
21504	0	0
22016	0	0
22528	0	0
23040	0	0
23552	0	0
24064	0	0
24576	0	0
25088	0	0
25600	0	0
26112	0	0
26624	0	0
27136	0	0
27648	0	0
28160	0	0
28672	0	0
29184	0	0
29696	0	0
30208	0	0
30720	0	0
31232	0	0
31744	0	0
32256	0	0
32768	0	0
33792	0	0
34816	0	0
35840	0	0
36864	0	0
37888	0	0
38912	0	0
39936	0	0
40960	0	0
41984	0	0
43008	0	0
44032	0	0
45056	4528	4144
46080	24784	23104
47104	14480	13392
48128	1984	1760
49152	0	0
50176	0	0
51200	0	0
52224	0	0
53248	0	0
54272	0	0
55296	0	0
56320	0	0
57344	0	0
58368	0	0
59392	0	0
60416	0	0
61440	0	0
62464	0	0
63488	0	0
64512	0	0
65536	0	0
67584	7984	7216
69632	7488	6816
71680	112	112
73728	0	0
75776	0	0
77824	0	0
79872	0	0
81920	0	0
83968	0	0
86016	0	0
88064	0	0
90112	30416	29968
92160	4646320	4638256
94208	1968560	1960768
96256	32	32
98304	128	112
100352	192	192
102400	16	16
104448	48	48
106496	160	160
108544	48	48
110592	96	96
112640	96	96
114688	64	64
116736	96	96
118784	96	96
120832	64	64
122880	128	128
124928	64	64
126976	80	80
129024	160	160
131072	176	176
135168	919696	916816
139264	1285456	1282432
143360	80	64
147456	0	0
151552	0	0
155648	0	0
159744	0	0
163840	0	0
167936	0	0
172032	0	0
176128	0	0
180224	0	0
184320	0	0
188416	0	0
192512	0	0
196608	0	0
200704	0	0
204800	0	0
208896	0	0
212992	0	0
217088	0	0
221184	0	0
225280	0	0
229376	0	0
233472	0	0
237568	0	0
241664	0	0
245760	0	0
249856	0	0
253952	0	0
258048	0	0
262144	0	0
270336	0	0
278528	0	0
286720	0	0
294912	0	0
303104	0	0
311296	0	0
319488	0	0
327680	0	0
335872	0	0
344064	0	0
352256	0	0
360448	0	0
368640	0	0
376832	0	0
385024	0	0
393216	0	0
401408	0	0
409600	0	0
417792	0	0
425984	0	0
434176	0	0
442368	0	0
450560	0	0
458752	0	0
466944	0	0
475136	0	0
483328	0	0
491520	0	0
499712	0	0
507904	0	0
516096	0	0
524288	0	0
540672	0	0
557056	0	0
573440	0	0
589824	0	0
606208	0	0
622592	0	0
638976	0	0
655360	0	0
671744	0	0
688128	0	0
704512	0	0
720896	0	0
737280	0	0
753664	0	0
770048	0	0
786432	0	0
802816	0	0
819200	0	0
835584	0	0
851968	0	0
868352	0	0
884736	0	0
901120	0	0
917504	0	0
933888	0	0
950272	0	0
966656	0	0
983040	0	0
999424	0	0
1015808	0	0
1032192	0	0
1048576	0	0
1081344	0	0
1114112	0	0
1146880	0	0
1179648	0	0
1212416	0	0
1245184	0	0
1277952	0	0
1310720	0	0
1343488	0	0
1376256	0	0
1409024	0	0
1441792	0	0
1474560	0	0
1507328	0	0
1540096	0	0
1572864	0	0
1605632	0	0
1638400	0	0
1671168	0	0
1703936	0	0
1736704	0	0
1769472	0	0
1802240	0	0
1835008	0	0
1867776	0	0
1900544	0	0
1933312	0	0
1966080	0	0
1998848	0	0
2031616	0	0
2064384	0	0
2097152	0	0
2162688	0	0
2228224	0	0
2293760	0	0
2359296	0	0
2424832	0	0
2490368	0	0
2555904	0	0
2621440	0	0
2686976	0	0
2752512	0	0
2818048	0	0
2883584	0	0
2949120	0	0
3014656	0	0
3080192	0	0
3145728	0	0
3211264	0	0
3276800	0	0
3342336	0	0
3407872	0	0
3473408	0	0
3538944	0	0
3604480	0	0
3670016	0	0
3735552	0	0
3801088	928	928
3866624	0	0
3932160	96	96
3997696	48	48
4063232	16	16
4128768	16	16
4194304	48	48
4325376	128	128
4456448	16	16
4587520	0	0
4718592	0	0
4849664	0	0
4980736	0	0
5111808	0	0
5242880	0	0
5373952	0	0
5505024	0	0
5636096	320	320
5767168	16	16
5898240	0	0
6029312	16	16
6160384	0	0
6291456	0	0
6422528	0	0
6553600	16	16
6684672	0	0
6815744	0	0
6946816	0	0
7077888	0	0
7208960	0	0
7340032	0	0
7471104	0	0
7602176	0	0
7733248	0	0
7864320	0	0
7995392	0	0
8126464	0	0
8257536	0	0
8388608	0	0
8650752	0	0
8912896	0	0
9175040	0	0
9437184	0	0
9699328	0	0
9961472	0	0
10223616	0	0
10485760	0	0
10747904	0	0
11010048	0	0
11272192	0	0
11534336	0	0
11796480	0	0
12058624	0	0
12320768	0	0
12582912	0	0
12845056	0	0
13107200	0	0
13369344	0	0
13631488	0	0
13893632	0	0
14155776	0	0
14417920	0	0
14680064	0	0
14942208	0	0
15204352	0	0
15466496	0	0
15728640	0	0
15990784	0	0
16252928	0	0
16515072	0	0
16777216	0	0
17301504	0	0
17825792	0	0
18350080	0	0
18874368	0	0
19398656	0	0
19922944	0	0
20447232	0	0
20971520	0	0
21495808	0	0
22020096	0	0
22544384	0	0
23068672	0	0
23592960	0	0
24117248	0	0
24641536	0	0
25165824	0	0
25690112	0	0
26214400	0	0
26738688	0	0
27262976	0	0
27787264	0	0
28311552	0	0
28835840	0	0
29360128	0	0
29884416	0	0
30408704	0	0
30932992	0	0
31457280	0	0
31981568	0	0
32505856	0	0
33030144	0	0
33554432	0	0
34603008	0	0
35651584	0	0
36700160	0	0
37748736	0	0
38797312	0	0
39845888	0	0
40894464	0	0
41943040	0	0
42991616	0	0
44040192	0	0
45088768	0	0
46137344	0	0
47185920	0	0
48234496	0	0
49283072	0	0
50331648	0	0
51380224	0	0
52428800	0	0
53477376	0	0
54525952	0	0
55574528	0	0
56623104	0	0
57671680	0	0
58720256	0	0
59768832	0	0
60817408	0	0
61865984	0	0
62914560	0	0
63963136	0	0
65011712	0	0
66060288	0	0
67108864	0	0
69206016	0	0
71303168	0	0
73400320	0	0
75497472	0	0
77594624	0	0
79691776	0	0
81788928	0	0
83886080	0	0
85983232	0	0
88080384	0	0
90177536	0	0
92274688	0	0
94371840	0	0
96468992	0	0
98566144	0	0
100663296	0	0
102760448	0	0
104857600	0	0
106954752	0	0
109051904	0	0
111149056	0	0
113246208	0	0
115343360	0	0
117440512	0	0
119537664	0	0
121634816	0	0
123731968	0	0
125829120	0	0
127926272	0	0
130023424	0	0
132120576	0	0
134217728	0	0
138412032	0	0
142606336	0	0
146800640	0	0
150994944	0	0
155189248	0	0
159383552	0	0
163577856	0	0
167772160	0	0
171966464	0	0
176160768	0	0
180355072	0	0
184549376	0	0
188743680	0	0
192937984	0	0
197132288	0	0
201326592	0	0
205520896	0	0
209715200	0	0
213909504	0	0
218103808	0	0
222298112	0	0
226492416	0	0
230686720	0	0
234881024	0	0
239075328	0	0
243269632	0	0
247463936	0	0
251658240	0	0
255852544	0	0
260046848	0	0
264241152	0	0
268435456	0	0
276824064	0	0
285212672	0	0
293601280	0	0
301989888	0	0
310378496	0	0
318767104	0	0
327155712	0	0
335544320	0	0
343932928	0	0
352321536	0	0
360710144	0	0
369098752	0	0
377487360	0	0
385875968	0	0
394264576	0	0
402653184	0	0
411041792	0	0
419430400	0	0
427819008	0	0
436207616	0	0
444596224	0	0
452984832	0	0
461373440	0	0
469762048	0	0
478150656	0	0
486539264	0	0
494927872	0	0
503316480	0	0
511705088	0	0
520093696	0	0
528482304	0	0
536870912	0	0
553648128	0	0
570425344	0	0
587202560	0	0
603979776	0	0
620756992	0	0
637534208	0	0
654311424	0	0
671088640	0	0
687865856	0	0
704643072	0	0
721420288	0	0
738197504	0	0
754974720	0	0
771751936	0	0
788529152	0	0
805306368	0	0
822083584	0	0
838860800	0	0
855638016	0	0
872415232	0	0
889192448	0	0
905969664	0	0
922746880	0	0
939524096	0	0
956301312	0	0
973078528	0	0
989855744	0	0
1006632960	0	0
1023410176	0	0
1040187392	0	0
1056964608	0	0
1073741824	0	0
1107296256	0	0
1140850688	0	0
1174405120	0	0
1207959552	0	0
1241513984	0	0
1275068416	0	0
1308622848	0	0
1342177280	0	0
1375731712	0	0
1409286144	0	0
1442840576	0	0
1476395008	0	0
1509949440	0	0
1543503872	0	0
1577058304	0	0
1610612736	0	0
1644167168	0	0
1677721600	0	0
1711276032	0	0
1744830464	0	0
1778384896	0	0
1811939328	0	0
1845493760	0	0
1879048192	0	0
1912602624	0	0
1946157056	0	0
1979711488	0	0
2013265920	0	0
2046820352	0	0
2080374784	0	0
2113929216	0	0
2147483648	0	0
2214592512	0	0
2281701376	0	0
2348810240	0	0
2415919104	0	0
2483027968	0	0
2550136832	0	0
2617245696	0	0
2684354560	0	0
2751463424	0	0
2818572288	0	0
2885681152	0	0
2952790016	0	0
3019898880	0	0
3087007744	0	0
3154116608	0	0
3221225472	0	0
3288334336	0	0
3355443200	0	0
3422552064	0	0
3489660928	0	0
3556769792	0	0
3623878656	0	0
3690987520	0	0
3758096384	0	0
3825205248	0	0
3892314112	0	0
3959422976	0	0
4026531840	0	0
4093640704	0	0
4160749568	0	0
4227858432	0	0
~~~~~~~~~~Reuse Distance Profiler output end~~~~~~~~~~

DRAM Statistics
 CHANNEL 0
 RQ ROW_BUFFER_HIT:     324286  ROW_BUFFER_MISS:   13064974
 DBUS AVG_CONGESTED_CYCLE:    3.98486
 WQ ROW_BUFFER_HIT:    2107518  ROW_BUFFER_MISS:   11041130  FULL:          0


CPU 0 Branch Prediction Accuracy: 99.9501% MPKI: 0.00876333 Average ROB Occupancy at Mispredict: 341.043
Branch type MPKI
BRANCH_DIRECT_JUMP: 0
BRANCH_INDIRECT: 0
BRANCH_CONDITIONAL: 0.00876333
BRANCH_DIRECT_CALL: 0
BRANCH_INDIRECT_CALL: 0
BRANCH_RETURN: 0

