
*** ChampSim Multicore Out-of-Order Simulator ***

Warmup Instructions: 500000000
Simulation Instructions: 1500000000
Number of CPUs: 1
Off-chip DRAM Size: 4 GiB Channels: 1 Width: 64-bit Data Rate: 3200 MT/s

VirtualMemory physical capacity: 8588881920 num_ppages: 2096895
VirtualMemory page size: 4096 log2_page_size: 12

CPU 0 runs traces/649.fotonik3d_s-7084B.champsimtrace.xz
CPU 0 Bimodal branch predictor
Basic BTB sets: 1024 ways: 8 indirect buffer size: 4096 RAS size: 64
Initializing LRU.
Initializing LRU.
Initializing LRU.
Initializing LRU.
Initializing rdLRU.
Initializing LRU.
Initializing LRU.
Heartbeat CPU 0 instructions: 10000004 cycles: 3256752 heartbeat IPC: 3.07055 cumulative IPC: 3.07055 (Simulation time: 0 hr 1 min 23 sec) 
Heartbeat CPU 0 instructions: 20000003 cycles: 6513377 heartbeat IPC: 3.07066 cumulative IPC: 3.0706 (Simulation time: 0 hr 2 min 42 sec) 
Heartbeat CPU 0 instructions: 30000001 cycles: 9769996 heartbeat IPC: 3.07067 cumulative IPC: 3.07063 (Simulation time: 0 hr 4 min 7 sec) 
Heartbeat CPU 0 instructions: 40000000 cycles: 13026639 heartbeat IPC: 3.07065 cumulative IPC: 3.07063 (Simulation time: 0 hr 5 min 27 sec) 
Heartbeat CPU 0 instructions: 50000003 cycles: 16283259 heartbeat IPC: 3.07067 cumulative IPC: 3.07064 (Simulation time: 0 hr 6 min 44 sec) 
Heartbeat CPU 0 instructions: 60000001 cycles: 19539882 heartbeat IPC: 3.07066 cumulative IPC: 3.07064 (Simulation time: 0 hr 7 min 59 sec) 
Heartbeat CPU 0 instructions: 70000001 cycles: 22796529 heartbeat IPC: 3.07064 cumulative IPC: 3.07064 (Simulation time: 0 hr 9 min 0 sec) 
Heartbeat CPU 0 instructions: 80000002 cycles: 26053156 heartbeat IPC: 3.07066 cumulative IPC: 3.07065 (Simulation time: 0 hr 10 min 16 sec) 
Heartbeat CPU 0 instructions: 90000000 cycles: 29309772 heartbeat IPC: 3.07067 cumulative IPC: 3.07065 (Simulation time: 0 hr 11 min 24 sec) 
Heartbeat CPU 0 instructions: 100000003 cycles: 32566393 heartbeat IPC: 3.07067 cumulative IPC: 3.07065 (Simulation time: 0 hr 12 min 31 sec) 
Heartbeat CPU 0 instructions: 110000004 cycles: 35823044 heartbeat IPC: 3.07064 cumulative IPC: 3.07065 (Simulation time: 0 hr 13 min 44 sec) 
Heartbeat CPU 0 instructions: 120000003 cycles: 39079665 heartbeat IPC: 3.07067 cumulative IPC: 3.07065 (Simulation time: 0 hr 14 min 57 sec) 
Heartbeat CPU 0 instructions: 130000002 cycles: 42336276 heartbeat IPC: 3.07068 cumulative IPC: 3.07065 (Simulation time: 0 hr 16 min 5 sec) 
Heartbeat CPU 0 instructions: 140000001 cycles: 45592931 heartbeat IPC: 3.07064 cumulative IPC: 3.07065 (Simulation time: 0 hr 17 min 11 sec) 
Heartbeat CPU 0 instructions: 150000004 cycles: 48849549 heartbeat IPC: 3.07067 cumulative IPC: 3.07065 (Simulation time: 0 hr 18 min 26 sec) 
Heartbeat CPU 0 instructions: 160000004 cycles: 52106170 heartbeat IPC: 3.07067 cumulative IPC: 3.07065 (Simulation time: 0 hr 19 min 48 sec) 
Heartbeat CPU 0 instructions: 170000002 cycles: 55362810 heartbeat IPC: 3.07065 cumulative IPC: 3.07065 (Simulation time: 0 hr 21 min 2 sec) 
Heartbeat CPU 0 instructions: 180000001 cycles: 58619439 heartbeat IPC: 3.07066 cumulative IPC: 3.07065 (Simulation time: 0 hr 22 min 20 sec) 
Heartbeat CPU 0 instructions: 190000000 cycles: 61876060 heartbeat IPC: 3.07067 cumulative IPC: 3.07065 (Simulation time: 0 hr 23 min 36 sec) 
Heartbeat CPU 0 instructions: 200000000 cycles: 65132673 heartbeat IPC: 3.07067 cumulative IPC: 3.07066 (Simulation time: 0 hr 24 min 57 sec) 
Heartbeat CPU 0 instructions: 210000000 cycles: 68389326 heartbeat IPC: 3.07064 cumulative IPC: 3.07065 (Simulation time: 0 hr 26 min 22 sec) 
Heartbeat CPU 0 instructions: 220000001 cycles: 71645951 heartbeat IPC: 3.07066 cumulative IPC: 3.07066 (Simulation time: 0 hr 27 min 29 sec) 
Heartbeat CPU 0 instructions: 230000000 cycles: 74902565 heartbeat IPC: 3.07067 cumulative IPC: 3.07066 (Simulation time: 0 hr 28 min 22 sec) 
Heartbeat CPU 0 instructions: 240000000 cycles: 78159212 heartbeat IPC: 3.07064 cumulative IPC: 3.07066 (Simulation time: 0 hr 29 min 36 sec) 
Heartbeat CPU 0 instructions: 250000000 cycles: 81415835 heartbeat IPC: 3.07067 cumulative IPC: 3.07066 (Simulation time: 0 hr 30 min 36 sec) 
Heartbeat CPU 0 instructions: 260000003 cycles: 84672458 heartbeat IPC: 3.07067 cumulative IPC: 3.07066 (Simulation time: 0 hr 31 min 46 sec) 
Heartbeat CPU 0 instructions: 270000000 cycles: 87929081 heartbeat IPC: 3.07066 cumulative IPC: 3.07066 (Simulation time: 0 hr 33 min 9 sec) 
Heartbeat CPU 0 instructions: 280000001 cycles: 91185722 heartbeat IPC: 3.07065 cumulative IPC: 3.07066 (Simulation time: 0 hr 34 min 22 sec) 
Heartbeat CPU 0 instructions: 290000001 cycles: 94442350 heartbeat IPC: 3.07066 cumulative IPC: 3.07066 (Simulation time: 0 hr 35 min 14 sec) 
Heartbeat CPU 0 instructions: 300000002 cycles: 97698960 heartbeat IPC: 3.07068 cumulative IPC: 3.07066 (Simulation time: 0 hr 36 min 19 sec) 
Heartbeat CPU 0 instructions: 310000000 cycles: 100955614 heartbeat IPC: 3.07064 cumulative IPC: 3.07066 (Simulation time: 0 hr 37 min 27 sec) 
Heartbeat CPU 0 instructions: 320000004 cycles: 104212240 heartbeat IPC: 3.07066 cumulative IPC: 3.07066 (Simulation time: 0 hr 38 min 41 sec) 
Heartbeat CPU 0 instructions: 330000000 cycles: 107468853 heartbeat IPC: 3.07067 cumulative IPC: 3.07066 (Simulation time: 0 hr 40 min 1 sec) 
Heartbeat CPU 0 instructions: 340000000 cycles: 110725481 heartbeat IPC: 3.07066 cumulative IPC: 3.07066 (Simulation time: 0 hr 41 min 10 sec) 
Heartbeat CPU 0 instructions: 350000002 cycles: 113982118 heartbeat IPC: 3.07065 cumulative IPC: 3.07066 (Simulation time: 0 hr 42 min 18 sec) 
Heartbeat CPU 0 instructions: 360000003 cycles: 117238746 heartbeat IPC: 3.07066 cumulative IPC: 3.07066 (Simulation time: 0 hr 43 min 16 sec) 
Heartbeat CPU 0 instructions: 370000003 cycles: 120495374 heartbeat IPC: 3.07066 cumulative IPC: 3.07066 (Simulation time: 0 hr 44 min 32 sec) 
Heartbeat CPU 0 instructions: 380000002 cycles: 123752010 heartbeat IPC: 3.07065 cumulative IPC: 3.07066 (Simulation time: 0 hr 45 min 38 sec) 
Heartbeat CPU 0 instructions: 390000001 cycles: 127008635 heartbeat IPC: 3.07066 cumulative IPC: 3.07066 (Simulation time: 0 hr 46 min 29 sec) 
Heartbeat CPU 0 instructions: 400000003 cycles: 130265249 heartbeat IPC: 3.07067 cumulative IPC: 3.07066 (Simulation time: 0 hr 47 min 37 sec) 
Heartbeat CPU 0 instructions: 410000004 cycles: 133521883 heartbeat IPC: 3.07066 cumulative IPC: 3.07066 (Simulation time: 0 hr 49 min 2 sec) 
Heartbeat CPU 0 instructions: 420000004 cycles: 136778530 heartbeat IPC: 3.07064 cumulative IPC: 3.07066 (Simulation time: 0 hr 50 min 25 sec) 
Heartbeat CPU 0 instructions: 430000001 cycles: 140035140 heartbeat IPC: 3.07068 cumulative IPC: 3.07066 (Simulation time: 0 hr 51 min 38 sec) 
Heartbeat CPU 0 instructions: 440000000 cycles: 143291764 heartbeat IPC: 3.07066 cumulative IPC: 3.07066 (Simulation time: 0 hr 52 min 49 sec) 
Heartbeat CPU 0 instructions: 450000000 cycles: 146548409 heartbeat IPC: 3.07064 cumulative IPC: 3.07066 (Simulation time: 0 hr 53 min 58 sec) 
Heartbeat CPU 0 instructions: 460000002 cycles: 149805032 heartbeat IPC: 3.07067 cumulative IPC: 3.07066 (Simulation time: 0 hr 55 min 7 sec) 
Heartbeat CPU 0 instructions: 470000000 cycles: 153061656 heartbeat IPC: 3.07066 cumulative IPC: 3.07066 (Simulation time: 0 hr 56 min 5 sec) 
Heartbeat CPU 0 instructions: 480000001 cycles: 156318273 heartbeat IPC: 3.07067 cumulative IPC: 3.07066 (Simulation time: 0 hr 57 min 8 sec) 
Heartbeat CPU 0 instructions: 490000002 cycles: 159574925 heartbeat IPC: 3.07064 cumulative IPC: 3.07066 (Simulation time: 0 hr 58 min 13 sec) 
Heartbeat CPU 0 instructions: 500000004 cycles: 162831537 heartbeat IPC: 3.07068 cumulative IPC: 3.07066 (Simulation time: 0 hr 59 min 21 sec) 

Warmup complete CPU 0 instructions: 500000004 cycles: 162831537 (Simulation time: 0 hr 59 min 21 sec) 

Heartbeat CPU 0 instructions: 510000004 cycles: 177452113 heartbeat IPC: 0.683968 cumulative IPC: 0.683968 (Simulation time: 1 hr 3 min 18 sec) 
Heartbeat CPU 0 instructions: 520000001 cycles: 192244572 heartbeat IPC: 0.67602 cumulative IPC: 0.679971 (Simulation time: 1 hr 6 min 20 sec) 
Heartbeat CPU 0 instructions: 530000000 cycles: 206608848 heartbeat IPC: 0.696171 cumulative IPC: 0.685286 (Simulation time: 1 hr 9 min 52 sec) 
Heartbeat CPU 0 instructions: 540000002 cycles: 221064683 heartbeat IPC: 0.691762 cumulative IPC: 0.686894 (Simulation time: 1 hr 13 min 5 sec) 
Heartbeat CPU 0 instructions: 550000003 cycles: 235842723 heartbeat IPC: 0.67668 cumulative IPC: 0.684827 (Simulation time: 1 hr 15 min 40 sec) 
Heartbeat CPU 0 instructions: 560000003 cycles: 250359334 heartbeat IPC: 0.688866 cumulative IPC: 0.685497 (Simulation time: 1 hr 18 min 27 sec) 
Heartbeat CPU 0 instructions: 570000001 cycles: 264812433 heartbeat IPC: 0.691893 cumulative IPC: 0.686403 (Simulation time: 1 hr 21 min 47 sec) 
Heartbeat CPU 0 instructions: 580000002 cycles: 279287417 heartbeat IPC: 0.690847 cumulative IPC: 0.686955 (Simulation time: 1 hr 25 min 6 sec) 
Heartbeat CPU 0 instructions: 590000000 cycles: 294069358 heartbeat IPC: 0.676501 cumulative IPC: 0.685778 (Simulation time: 1 hr 28 min 53 sec) 
Heartbeat CPU 0 instructions: 600000002 cycles: 309535523 heartbeat IPC: 0.646573 cumulative IPC: 0.681645 (Simulation time: 1 hr 31 min 40 sec) 
Heartbeat CPU 0 instructions: 610000000 cycles: 324469358 heartbeat IPC: 0.66962 cumulative IPC: 0.680534 (Simulation time: 1 hr 34 min 37 sec) 
Heartbeat CPU 0 instructions: 620000001 cycles: 339021067 heartbeat IPC: 0.687205 cumulative IPC: 0.681085 (Simulation time: 1 hr 37 min 19 sec) 
Heartbeat CPU 0 instructions: 630000000 cycles: 353677404 heartbeat IPC: 0.682299 cumulative IPC: 0.681178 (Simulation time: 1 hr 39 min 56 sec) 
Heartbeat CPU 0 instructions: 640000004 cycles: 368275672 heartbeat IPC: 0.685013 cumulative IPC: 0.68145 (Simulation time: 1 hr 42 min 24 sec) 
Heartbeat CPU 0 instructions: 650000000 cycles: 382719801 heartbeat IPC: 0.692323 cumulative IPC: 0.682165 (Simulation time: 1 hr 45 min 29 sec) 
Heartbeat CPU 0 instructions: 660000001 cycles: 397501604 heartbeat IPC: 0.676508 cumulative IPC: 0.681808 (Simulation time: 1 hr 49 min 13 sec) 
Heartbeat CPU 0 instructions: 670000002 cycles: 412269374 heartbeat IPC: 0.67715 cumulative IPC: 0.681533 (Simulation time: 1 hr 52 min 3 sec) 
Heartbeat CPU 0 instructions: 680000001 cycles: 426853621 heartbeat IPC: 0.685671 cumulative IPC: 0.681761 (Simulation time: 1 hr 55 min 23 sec) 
Heartbeat CPU 0 instructions: 690000004 cycles: 441486101 heartbeat IPC: 0.683411 cumulative IPC: 0.681848 (Simulation time: 1 hr 58 min 25 sec) 
Heartbeat CPU 0 instructions: 700000000 cycles: 456453562 heartbeat IPC: 0.668116 cumulative IPC: 0.681148 (Simulation time: 2 hr 1 min 43 sec) 
Heartbeat CPU 0 instructions: 710000001 cycles: 471344968 heartbeat IPC: 0.671528 cumulative IPC: 0.680683 (Simulation time: 2 hr 4 min 44 sec) 
Heartbeat CPU 0 instructions: 720000003 cycles: 486100367 heartbeat IPC: 0.677718 cumulative IPC: 0.680548 (Simulation time: 2 hr 7 min 52 sec) 
Heartbeat CPU 0 instructions: 730000003 cycles: 500491664 heartbeat IPC: 0.694864 cumulative IPC: 0.681158 (Simulation time: 2 hr 11 min 8 sec) 
Heartbeat CPU 0 instructions: 740000002 cycles: 514980634 heartbeat IPC: 0.69018 cumulative IPC: 0.68153 (Simulation time: 2 hr 14 min 0 sec) 
Heartbeat CPU 0 instructions: 750000001 cycles: 529608650 heartbeat IPC: 0.68362 cumulative IPC: 0.681613 (Simulation time: 2 hr 17 min 14 sec) 
Heartbeat CPU 0 instructions: 760000001 cycles: 544475780 heartbeat IPC: 0.672625 cumulative IPC: 0.681263 (Simulation time: 2 hr 20 min 14 sec) 
Heartbeat CPU 0 instructions: 770000001 cycles: 559452525 heartbeat IPC: 0.667702 cumulative IPC: 0.680751 (Simulation time: 2 hr 23 min 36 sec) 
Heartbeat CPU 0 instructions: 780000001 cycles: 573869507 heartbeat IPC: 0.693626 cumulative IPC: 0.681202 (Simulation time: 2 hr 26 min 25 sec) 
Heartbeat CPU 0 instructions: 790000003 cycles: 588154096 heartbeat IPC: 0.700055 cumulative IPC: 0.681835 (Simulation time: 2 hr 30 min 18 sec) 
Heartbeat CPU 0 instructions: 800000000 cycles: 602506576 heartbeat IPC: 0.696743 cumulative IPC: 0.682322 (Simulation time: 2 hr 33 min 46 sec) 
Heartbeat CPU 0 instructions: 810000004 cycles: 616965251 heartbeat IPC: 0.691627 cumulative IPC: 0.682618 (Simulation time: 2 hr 35 min 54 sec) 
Heartbeat CPU 0 instructions: 820000002 cycles: 631610054 heartbeat IPC: 0.682836 cumulative IPC: 0.682625 (Simulation time: 2 hr 38 min 5 sec) 
Heartbeat CPU 0 instructions: 830000003 cycles: 646211725 heartbeat IPC: 0.684853 cumulative IPC: 0.682692 (Simulation time: 2 hr 40 min 15 sec) 
Heartbeat CPU 0 instructions: 840000004 cycles: 660789581 heartbeat IPC: 0.685972 cumulative IPC: 0.682788 (Simulation time: 2 hr 42 min 27 sec) 
Heartbeat CPU 0 instructions: 850000001 cycles: 675310249 heartbeat IPC: 0.688673 cumulative IPC: 0.682955 (Simulation time: 2 hr 45 min 8 sec) 
Heartbeat CPU 0 instructions: 860000004 cycles: 689800878 heartbeat IPC: 0.690101 cumulative IPC: 0.683152 (Simulation time: 2 hr 47 min 37 sec) 
Heartbeat CPU 0 instructions: 870000002 cycles: 704260417 heartbeat IPC: 0.691585 cumulative IPC: 0.683377 (Simulation time: 2 hr 49 min 46 sec) 
Heartbeat CPU 0 instructions: 880000000 cycles: 718924451 heartbeat IPC: 0.68194 cumulative IPC: 0.683339 (Simulation time: 2 hr 51 min 54 sec) 
Heartbeat CPU 0 instructions: 890000002 cycles: 733583595 heartbeat IPC: 0.682168 cumulative IPC: 0.683309 (Simulation time: 2 hr 54 min 3 sec) 
Heartbeat CPU 0 instructions: 900000002 cycles: 747960759 heartbeat IPC: 0.695547 cumulative IPC: 0.68361 (Simulation time: 2 hr 56 min 9 sec) 
Heartbeat CPU 0 instructions: 910000001 cycles: 762974556 heartbeat IPC: 0.666054 cumulative IPC: 0.68317 (Simulation time: 2 hr 58 min 19 sec) 
Heartbeat CPU 0 instructions: 920000000 cycles: 778465495 heartbeat IPC: 0.645539 cumulative IPC: 0.682224 (Simulation time: 3 hr 0 min 30 sec) 
Heartbeat CPU 0 instructions: 930000002 cycles: 792865934 heartbeat IPC: 0.694423 cumulative IPC: 0.682502 (Simulation time: 3 hr 2 min 33 sec) 
Heartbeat CPU 0 instructions: 940000002 cycles: 807156354 heartbeat IPC: 0.699769 cumulative IPC: 0.682885 (Simulation time: 3 hr 4 min 36 sec) 
Heartbeat CPU 0 instructions: 950000003 cycles: 821734851 heartbeat IPC: 0.685942 cumulative IPC: 0.682953 (Simulation time: 3 hr 6 min 40 sec) 
Heartbeat CPU 0 instructions: 960000000 cycles: 836302318 heartbeat IPC: 0.686461 cumulative IPC: 0.683029 (Simulation time: 3 hr 8 min 44 sec) 
Heartbeat CPU 0 instructions: 970000004 cycles: 850870388 heartbeat IPC: 0.686433 cumulative IPC: 0.683101 (Simulation time: 3 hr 10 min 48 sec) 
Heartbeat CPU 0 instructions: 980000001 cycles: 866323921 heartbeat IPC: 0.647101 cumulative IPC: 0.68231 (Simulation time: 3 hr 12 min 57 sec) 
Heartbeat CPU 0 instructions: 990000000 cycles: 881801338 heartbeat IPC: 0.646103 cumulative IPC: 0.681531 (Simulation time: 3 hr 15 min 6 sec) 
Heartbeat CPU 0 instructions: 1000000000 cycles: 896536121 heartbeat IPC: 0.678666 cumulative IPC: 0.681473 (Simulation time: 3 hr 17 min 11 sec) 
Heartbeat CPU 0 instructions: 1010000004 cycles: 911144473 heartbeat IPC: 0.68454 cumulative IPC: 0.681533 (Simulation time: 3 hr 19 min 15 sec) 
Heartbeat CPU 0 instructions: 1020000002 cycles: 925864540 heartbeat IPC: 0.679345 cumulative IPC: 0.681491 (Simulation time: 3 hr 21 min 20 sec) 
Heartbeat CPU 0 instructions: 1030000004 cycles: 940238442 heartbeat IPC: 0.695705 cumulative IPC: 0.681754 (Simulation time: 3 hr 23 min 22 sec) 
Heartbeat CPU 0 instructions: 1040000002 cycles: 954554079 heartbeat IPC: 0.698537 cumulative IPC: 0.682057 (Simulation time: 3 hr 25 min 26 sec) 
Heartbeat CPU 0 instructions: 1050000000 cycles: 968856297 heartbeat IPC: 0.699192 cumulative IPC: 0.682361 (Simulation time: 3 hr 27 min 28 sec) 
Heartbeat CPU 0 instructions: 1060000000 cycles: 983157068 heartbeat IPC: 0.699263 cumulative IPC: 0.682656 (Simulation time: 3 hr 29 min 31 sec) 
Heartbeat CPU 0 instructions: 1070000002 cycles: 997489515 heartbeat IPC: 0.697718 cumulative IPC: 0.682914 (Simulation time: 3 hr 31 min 34 sec) 
Heartbeat CPU 0 instructions: 1080000001 cycles: 1012360557 heartbeat IPC: 0.672448 cumulative IPC: 0.682731 (Simulation time: 3 hr 33 min 40 sec) 
Heartbeat CPU 0 instructions: 1090000004 cycles: 1027378209 heartbeat IPC: 0.665883 cumulative IPC: 0.682439 (Simulation time: 3 hr 35 min 47 sec) 
Heartbeat CPU 0 instructions: 1100000001 cycles: 1041872586 heartbeat IPC: 0.689923 cumulative IPC: 0.682562 (Simulation time: 3 hr 37 min 50 sec) 
Heartbeat CPU 0 instructions: 1110000004 cycles: 1056689153 heartbeat IPC: 0.67492 cumulative IPC: 0.682435 (Simulation time: 3 hr 39 min 55 sec) 
Heartbeat CPU 0 instructions: 1120000002 cycles: 1071796525 heartbeat IPC: 0.661928 cumulative IPC: 0.682094 (Simulation time: 3 hr 42 min 2 sec) 
Heartbeat CPU 0 instructions: 1130000002 cycles: 1086915112 heartbeat IPC: 0.661437 cumulative IPC: 0.681756 (Simulation time: 3 hr 44 min 9 sec) 
Heartbeat CPU 0 instructions: 1140000002 cycles: 1101997075 heartbeat IPC: 0.663044 cumulative IPC: 0.681456 (Simulation time: 3 hr 46 min 18 sec) 
Heartbeat CPU 0 instructions: 1150000003 cycles: 1116511175 heartbeat IPC: 0.688985 cumulative IPC: 0.681571 (Simulation time: 3 hr 48 min 21 sec) 
Heartbeat CPU 0 instructions: 1160000000 cycles: 1130991108 heartbeat IPC: 0.690611 cumulative IPC: 0.681706 (Simulation time: 3 hr 50 min 24 sec) 
Heartbeat CPU 0 instructions: 1170000001 cycles: 1145482675 heartbeat IPC: 0.690057 cumulative IPC: 0.681829 (Simulation time: 3 hr 52 min 28 sec) 
Heartbeat CPU 0 instructions: 1180000003 cycles: 1159904554 heartbeat IPC: 0.693391 cumulative IPC: 0.681996 (Simulation time: 3 hr 54 min 31 sec) 
Heartbeat CPU 0 instructions: 1190000000 cycles: 1174393272 heartbeat IPC: 0.690192 cumulative IPC: 0.682114 (Simulation time: 3 hr 56 min 34 sec) 
Heartbeat CPU 0 instructions: 1200000004 cycles: 1189921363 heartbeat IPC: 0.643994 cumulative IPC: 0.681537 (Simulation time: 3 hr 58 min 44 sec) 
Heartbeat CPU 0 instructions: 1210000004 cycles: 1204970326 heartbeat IPC: 0.664498 cumulative IPC: 0.681291 (Simulation time: 4 hr 0 min 51 sec) 
Heartbeat CPU 0 instructions: 1220000000 cycles: 1219598426 heartbeat IPC: 0.683616 cumulative IPC: 0.681323 (Simulation time: 4 hr 2 min 55 sec) 
Heartbeat CPU 0 instructions: 1230000001 cycles: 1234877500 heartbeat IPC: 0.65449 cumulative IPC: 0.680941 (Simulation time: 4 hr 5 min 3 sec) 
Heartbeat CPU 0 instructions: 1240000002 cycles: 1250470695 heartbeat IPC: 0.641305 cumulative IPC: 0.680373 (Simulation time: 4 hr 7 min 12 sec) 
Heartbeat CPU 0 instructions: 1250000000 cycles: 1264864414 heartbeat IPC: 0.694747 cumulative IPC: 0.68056 (Simulation time: 4 hr 9 min 14 sec) 
Heartbeat CPU 0 instructions: 1260000001 cycles: 1279231668 heartbeat IPC: 0.696027 cumulative IPC: 0.680759 (Simulation time: 4 hr 11 min 17 sec) 
Heartbeat CPU 0 instructions: 1270000001 cycles: 1293574155 heartbeat IPC: 0.697229 cumulative IPC: 0.680968 (Simulation time: 4 hr 13 min 20 sec) 
Heartbeat CPU 0 instructions: 1280000001 cycles: 1308124542 heartbeat IPC: 0.687267 cumulative IPC: 0.681048 (Simulation time: 4 hr 15 min 24 sec) 
Heartbeat CPU 0 instructions: 1290000000 cycles: 1322688409 heartbeat IPC: 0.686631 cumulative IPC: 0.681119 (Simulation time: 4 hr 17 min 28 sec) 
Heartbeat CPU 0 instructions: 1300000004 cycles: 1337628436 heartbeat IPC: 0.669343 cumulative IPC: 0.680969 (Simulation time: 4 hr 19 min 34 sec) 
Heartbeat CPU 0 instructions: 1310000003 cycles: 1352682623 heartbeat IPC: 0.664267 cumulative IPC: 0.680757 (Simulation time: 4 hr 21 min 40 sec) 
Heartbeat CPU 0 instructions: 1320000001 cycles: 1367963460 heartbeat IPC: 0.654414 cumulative IPC: 0.680423 (Simulation time: 4 hr 23 min 49 sec) 
Heartbeat CPU 0 instructions: 1330000000 cycles: 1382658692 heartbeat IPC: 0.680493 cumulative IPC: 0.680424 (Simulation time: 4 hr 25 min 53 sec) 
Heartbeat CPU 0 instructions: 1340000001 cycles: 1397130589 heartbeat IPC: 0.690995 cumulative IPC: 0.680548 (Simulation time: 4 hr 27 min 57 sec) 
Heartbeat CPU 0 instructions: 1350000003 cycles: 1412913078 heartbeat IPC: 0.633614 cumulative IPC: 0.679956 (Simulation time: 4 hr 30 min 7 sec) 
Heartbeat CPU 0 instructions: 1360000004 cycles: 1428263814 heartbeat IPC: 0.651435 cumulative IPC: 0.67961 (Simulation time: 4 hr 32 min 17 sec) 
Heartbeat CPU 0 instructions: 1370000001 cycles: 1442692671 heartbeat IPC: 0.693055 cumulative IPC: 0.679761 (Simulation time: 4 hr 34 min 20 sec) 
Heartbeat CPU 0 instructions: 1380000001 cycles: 1459263511 heartbeat IPC: 0.60347 cumulative IPC: 0.678786 (Simulation time: 4 hr 36 min 48 sec) 
Heartbeat CPU 0 instructions: 1390000001 cycles: 1476116501 heartbeat IPC: 0.593367 cumulative IPC: 0.67769 (Simulation time: 4 hr 39 min 24 sec) 
Heartbeat CPU 0 instructions: 1400000001 cycles: 1493024894 heartbeat IPC: 0.591422 cumulative IPC: 0.676593 (Simulation time: 4 hr 42 min 1 sec) 
Heartbeat CPU 0 instructions: 1410000001 cycles: 1509803346 heartbeat IPC: 0.596003 cumulative IPC: 0.67559 (Simulation time: 4 hr 44 min 36 sec) 
Heartbeat CPU 0 instructions: 1420000004 cycles: 1526609479 heartbeat IPC: 0.595021 cumulative IPC: 0.674597 (Simulation time: 4 hr 47 min 12 sec) 
Heartbeat CPU 0 instructions: 1430000003 cycles: 1543431141 heartbeat IPC: 0.594472 cumulative IPC: 0.67362 (Simulation time: 4 hr 49 min 48 sec) 
Heartbeat CPU 0 instructions: 1440000004 cycles: 1560216068 heartbeat IPC: 0.595773 cumulative IPC: 0.672685 (Simulation time: 4 hr 52 min 24 sec) 
Heartbeat CPU 0 instructions: 1450000001 cycles: 1577074129 heartbeat IPC: 0.593188 cumulative IPC: 0.671738 (Simulation time: 4 hr 55 min 0 sec) 
Heartbeat CPU 0 instructions: 1460000002 cycles: 1593967709 heartbeat IPC: 0.591941 cumulative IPC: 0.670796 (Simulation time: 4 hr 57 min 40 sec) 
Heartbeat CPU 0 instructions: 1470000002 cycles: 1610781252 heartbeat IPC: 0.594759 cumulative IPC: 0.669913 (Simulation time: 5 hr 0 min 16 sec) 
Heartbeat CPU 0 instructions: 1480000002 cycles: 1627610188 heartbeat IPC: 0.594215 cumulative IPC: 0.669043 (Simulation time: 5 hr 2 min 51 sec) 
Heartbeat CPU 0 instructions: 1490000001 cycles: 1644470423 heartbeat IPC: 0.593111 cumulative IPC: 0.668179 (Simulation time: 5 hr 5 min 27 sec) 
Heartbeat CPU 0 instructions: 1500000002 cycles: 1661348341 heartbeat IPC: 0.59249 cumulative IPC: 0.667327 (Simulation time: 5 hr 8 min 3 sec) 
Heartbeat CPU 0 instructions: 1510000000 cycles: 1678090942 heartbeat IPC: 0.597279 cumulative IPC: 0.666553 (Simulation time: 5 hr 10 min 39 sec) 
Heartbeat CPU 0 instructions: 1520000003 cycles: 1694892366 heartbeat IPC: 0.595188 cumulative IPC: 0.66577 (Simulation time: 5 hr 13 min 15 sec) 
Heartbeat CPU 0 instructions: 1530000000 cycles: 1711697529 heartbeat IPC: 0.595055 cumulative IPC: 0.665003 (Simulation time: 5 hr 15 min 51 sec) 
Heartbeat CPU 0 instructions: 1540000001 cycles: 1728584913 heartbeat IPC: 0.592158 cumulative IPC: 0.664217 (Simulation time: 5 hr 18 min 27 sec) 
Heartbeat CPU 0 instructions: 1550000004 cycles: 1745396586 heartbeat IPC: 0.594825 cumulative IPC: 0.66348 (Simulation time: 5 hr 21 min 4 sec) 
Heartbeat CPU 0 instructions: 1560000004 cycles: 1762307907 heartbeat IPC: 0.59132 cumulative IPC: 0.662717 (Simulation time: 5 hr 23 min 42 sec) 
Heartbeat CPU 0 instructions: 1570000002 cycles: 1779164787 heartbeat IPC: 0.593229 cumulative IPC: 0.661992 (Simulation time: 5 hr 26 min 18 sec) 
Heartbeat CPU 0 instructions: 1580000002 cycles: 1795919501 heartbeat IPC: 0.596847 cumulative IPC: 0.661324 (Simulation time: 5 hr 28 min 53 sec) 
Heartbeat CPU 0 instructions: 1590000003 cycles: 1812808856 heartbeat IPC: 0.592089 cumulative IPC: 0.660615 (Simulation time: 5 hr 31 min 29 sec) 
Heartbeat CPU 0 instructions: 1600000003 cycles: 1829570205 heartbeat IPC: 0.596611 cumulative IPC: 0.659971 (Simulation time: 5 hr 34 min 5 sec) 
Heartbeat CPU 0 instructions: 1610000002 cycles: 1846354422 heartbeat IPC: 0.595798 cumulative IPC: 0.659332 (Simulation time: 5 hr 36 min 41 sec) 
Heartbeat CPU 0 instructions: 1620000002 cycles: 1863160404 heartbeat IPC: 0.595026 cumulative IPC: 0.658696 (Simulation time: 5 hr 39 min 16 sec) 
Heartbeat CPU 0 instructions: 1630000000 cycles: 1879775994 heartbeat IPC: 0.601844 cumulative IPC: 0.658146 (Simulation time: 5 hr 41 min 54 sec) 
Heartbeat CPU 0 instructions: 1640000000 cycles: 1896425594 heartbeat IPC: 0.600615 cumulative IPC: 0.657593 (Simulation time: 5 hr 44 min 31 sec) 
Heartbeat CPU 0 instructions: 1650000001 cycles: 1912968298 heartbeat IPC: 0.604496 cumulative IPC: 0.657091 (Simulation time: 5 hr 47 min 7 sec) 
Heartbeat CPU 0 instructions: 1660000003 cycles: 1929591109 heartbeat IPC: 0.601583 cumulative IPC: 0.656569 (Simulation time: 5 hr 49 min 44 sec) 
Heartbeat CPU 0 instructions: 1670000004 cycles: 1946216639 heartbeat IPC: 0.601485 cumulative IPC: 0.656056 (Simulation time: 5 hr 52 min 23 sec) 
Heartbeat CPU 0 instructions: 1680000003 cycles: 1962836911 heartbeat IPC: 0.601675 cumulative IPC: 0.655554 (Simulation time: 5 hr 55 min 0 sec) 
Heartbeat CPU 0 instructions: 1690000004 cycles: 1979368519 heartbeat IPC: 0.604902 cumulative IPC: 0.655093 (Simulation time: 5 hr 57 min 36 sec) 
Heartbeat CPU 0 instructions: 1700000004 cycles: 1995862923 heartbeat IPC: 0.606266 cumulative IPC: 0.654653 (Simulation time: 6 hr 0 min 12 sec) 
Heartbeat CPU 0 instructions: 1710000002 cycles: 2012377558 heartbeat IPC: 0.605523 cumulative IPC: 0.654215 (Simulation time: 6 hr 2 min 48 sec) 
Heartbeat CPU 0 instructions: 1720000003 cycles: 2028886090 heartbeat IPC: 0.605747 cumulative IPC: 0.653786 (Simulation time: 6 hr 5 min 24 sec) 
Heartbeat CPU 0 instructions: 1730000000 cycles: 2045575393 heartbeat IPC: 0.599186 cumulative IPC: 0.653302 (Simulation time: 6 hr 7 min 59 sec) 
Heartbeat CPU 0 instructions: 1740000001 cycles: 2062135108 heartbeat IPC: 0.603875 cumulative IPC: 0.652871 (Simulation time: 6 hr 10 min 35 sec) 
Heartbeat CPU 0 instructions: 1750000004 cycles: 2078871927 heartbeat IPC: 0.597485 cumulative IPC: 0.652387 (Simulation time: 6 hr 13 min 11 sec) 
Heartbeat CPU 0 instructions: 1760000000 cycles: 2100593452 heartbeat IPC: 0.460373 cumulative IPC: 0.650235 (Simulation time: 6 hr 16 min 19 sec) 
Heartbeat CPU 0 instructions: 1770000003 cycles: 2177544789 heartbeat IPC: 0.129952 cumulative IPC: 0.630363 (Simulation time: 6 hr 25 min 25 sec) 
Heartbeat CPU 0 instructions: 1780000001 cycles: 2252399132 heartbeat IPC: 0.133593 cumulative IPC: 0.612567 (Simulation time: 6 hr 34 min 18 sec) 
Heartbeat CPU 0 instructions: 1790000002 cycles: 2317683491 heartbeat IPC: 0.153176 cumulative IPC: 0.598649 (Simulation time: 6 hr 42 min 6 sec) 
Heartbeat CPU 0 instructions: 1800000004 cycles: 2336820115 heartbeat IPC: 0.522558 cumulative IPC: 0.597979 (Simulation time: 6 hr 44 min 50 sec) 
Heartbeat CPU 0 instructions: 1810000000 cycles: 2352700075 heartbeat IPC: 0.629724 cumulative IPC: 0.598209 (Simulation time: 6 hr 47 min 14 sec) 
Heartbeat CPU 0 instructions: 1820000001 cycles: 2368600313 heartbeat IPC: 0.628921 cumulative IPC: 0.598431 (Simulation time: 6 hr 49 min 38 sec) 
Heartbeat CPU 0 instructions: 1830000001 cycles: 2384519919 heartbeat IPC: 0.628156 cumulative IPC: 0.598644 (Simulation time: 6 hr 52 min 3 sec) 
Heartbeat CPU 0 instructions: 1840000002 cycles: 2400402420 heartbeat IPC: 0.629624 cumulative IPC: 0.598864 (Simulation time: 6 hr 54 min 27 sec) 
Heartbeat CPU 0 instructions: 1850000003 cycles: 2416283147 heartbeat IPC: 0.629694 cumulative IPC: 0.599081 (Simulation time: 6 hr 56 min 50 sec) 
Heartbeat CPU 0 instructions: 1860000000 cycles: 2432128230 heartbeat IPC: 0.63111 cumulative IPC: 0.599305 (Simulation time: 6 hr 59 min 12 sec) 
Heartbeat CPU 0 instructions: 1870000002 cycles: 2447951091 heartbeat IPC: 0.631997 cumulative IPC: 0.599531 (Simulation time: 7 hr 1 min 36 sec) 
Heartbeat CPU 0 instructions: 1880000000 cycles: 2463855489 heartbeat IPC: 0.628757 cumulative IPC: 0.599733 (Simulation time: 7 hr 3 min 59 sec) 
Heartbeat CPU 0 instructions: 1890000001 cycles: 2479819973 heartbeat IPC: 0.626391 cumulative IPC: 0.599917 (Simulation time: 7 hr 6 min 21 sec) 
Heartbeat CPU 0 instructions: 1900000000 cycles: 2495800452 heartbeat IPC: 0.625763 cumulative IPC: 0.600094 (Simulation time: 7 hr 8 min 44 sec) 
Heartbeat CPU 0 instructions: 1910000004 cycles: 2511721299 heartbeat IPC: 0.628108 cumulative IPC: 0.600284 (Simulation time: 7 hr 11 min 8 sec) 
Heartbeat CPU 0 instructions: 1920000000 cycles: 2527551279 heartbeat IPC: 0.631712 cumulative IPC: 0.600494 (Simulation time: 7 hr 13 min 30 sec) 
Heartbeat CPU 0 instructions: 1930000002 cycles: 2543488214 heartbeat IPC: 0.627473 cumulative IPC: 0.600675 (Simulation time: 7 hr 15 min 54 sec) 
Heartbeat CPU 0 instructions: 1940000003 cycles: 2559253379 heartbeat IPC: 0.63431 cumulative IPC: 0.600896 (Simulation time: 7 hr 18 min 16 sec) 
Heartbeat CPU 0 instructions: 1950000004 cycles: 2575096216 heartbeat IPC: 0.6312 cumulative IPC: 0.601095 (Simulation time: 7 hr 20 min 38 sec) 
Heartbeat CPU 0 instructions: 1960000003 cycles: 2591007031 heartbeat IPC: 0.628503 cumulative IPC: 0.601274 (Simulation time: 7 hr 23 min 1 sec) 
Heartbeat CPU 0 instructions: 1970000004 cycles: 2606858783 heartbeat IPC: 0.630845 cumulative IPC: 0.601466 (Simulation time: 7 hr 25 min 24 sec) 
Heartbeat CPU 0 instructions: 1980000000 cycles: 2622685465 heartbeat IPC: 0.631844 cumulative IPC: 0.601662 (Simulation time: 7 hr 27 min 46 sec) 
Heartbeat CPU 0 instructions: 1990000003 cycles: 2638689517 heartbeat IPC: 0.624842 cumulative IPC: 0.601812 (Simulation time: 7 hr 30 min 9 sec) 
*** Reached end of trace: traces/649.fotonik3d_s-7084B.champsimtrace.xz
Heartbeat CPU 0 instructions: 2000000001 cycles: 2654702640 heartbeat IPC: 0.624488 cumulative IPC: 0.601957 (Simulation time: 7 hr 32 min 33 sec) 
Finished CPU 0 instructions: 1500000002 cycles: 2491871104 cumulative IPC: 0.601957 (Simulation time: 7 hr 32 min 33 sec) 

ChampSim completed all CPUs

Region of Interest Statistics

CPU 0 cumulative IPC: 0.601957 instructions: 1500000002 cycles: 2491871104
cpu0_DTLB TOTAL     ACCESS:  483503925  HIT:  477484342  MISS:    6019583
cpu0_DTLB LOAD      ACCESS:  423003854  HIT:  417376148  MISS:    5627706
cpu0_DTLB RFO       ACCESS:   60500071  HIT:   60108194  MISS:     391877
cpu0_DTLB PREFETCH  ACCESS:          0  HIT:          0  MISS:          0
cpu0_DTLB WRITEBACK ACCESS:          0  HIT:          0  MISS:          0
cpu0_DTLB TRANSLATION ACCESS:          0  HIT:          0  MISS:          0
cpu0_DTLB PREFETCH  REQUESTED:          0  ISSUED:          0  USEFUL:          0  USELESS:          0
cpu0_DTLB AVERAGE MISS LATENCY: 64.4538 cycles
cpu0_ITLB TOTAL     ACCESS:   14550768  HIT:   14550755  MISS:         13
cpu0_ITLB LOAD      ACCESS:   14550768  HIT:   14550755  MISS:         13
cpu0_ITLB RFO       ACCESS:          0  HIT:          0  MISS:          0
cpu0_ITLB PREFETCH  ACCESS:          0  HIT:          0  MISS:          0
cpu0_ITLB WRITEBACK ACCESS:          0  HIT:          0  MISS:          0
cpu0_ITLB TRANSLATION ACCESS:          0  HIT:          0  MISS:          0
cpu0_ITLB PREFETCH  REQUESTED:          0  ISSUED:          0  USEFUL:          0  USELESS:          0
cpu0_ITLB AVERAGE MISS LATENCY: 281.154 cycles
cpu0_L1I TOTAL     ACCESS:   61594505  HIT:   61594205  MISS:        300
cpu0_L1I LOAD      ACCESS:   61594505  HIT:   61594205  MISS:        300
cpu0_L1I RFO       ACCESS:          0  HIT:          0  MISS:          0
cpu0_L1I PREFETCH  ACCESS:          0  HIT:          0  MISS:          0
cpu0_L1I WRITEBACK ACCESS:          0  HIT:          0  MISS:          0
cpu0_L1I TRANSLATION ACCESS:          0  HIT:          0  MISS:          0
cpu0_L1I PREFETCH  REQUESTED:          0  ISSUED:          0  USEFUL:          0  USELESS:          0
cpu0_L1I AVERAGE MISS LATENCY: 449.173 cycles
cpu0_STLB TOTAL     ACCESS:    6019596  HIT:    2914859  MISS:    3104737
cpu0_STLB LOAD      ACCESS:    5627719  HIT:    2523042  MISS:    3104677
cpu0_STLB RFO       ACCESS:     391877  HIT:     391817  MISS:         60
cpu0_STLB PREFETCH  ACCESS:          0  HIT:          0  MISS:          0
cpu0_STLB WRITEBACK ACCESS:          0  HIT:          0  MISS:          0
cpu0_STLB TRANSLATION ACCESS:          0  HIT:          0  MISS:          0
cpu0_STLB PREFETCH  REQUESTED:          0  ISSUED:          0  USEFUL:          0  USELESS:          0
cpu0_STLB AVERAGE MISS LATENCY: 107.413 cycles
cpu0_L1D TOTAL     ACCESS:  512435753  HIT:  485326030  MISS:   27109723
cpu0_L1D LOAD      ACCESS:  419121113  HIT:  392126678  MISS:   26994435
cpu0_L1D RFO       ACCESS:   90358484  HIT:   90358457  MISS:         27
cpu0_L1D PREFETCH  ACCESS:          0  HIT:          0  MISS:          0
cpu0_L1D WRITEBACK ACCESS:          0  HIT:          0  MISS:          0
cpu0_L1D TRANSLATION ACCESS:    2956156  HIT:    2840895  MISS:     115261
cpu0_L1D PREFETCH  REQUESTED:          0  ISSUED:          0  USEFUL:          0  USELESS:          0
cpu0_L1D AVERAGE MISS LATENCY: 474.432 cycles
cpu0_L2C TOTAL     ACCESS:   37548509  HIT:   10974062  MISS:   26574447
cpu0_L2C LOAD      ACCESS:   26994735  HIT:     423319  MISS:   26571416
cpu0_L2C RFO       ACCESS:         27  HIT:          2  MISS:         25
cpu0_L2C PREFETCH  ACCESS:          0  HIT:          0  MISS:          0
cpu0_L2C WRITEBACK ACCESS:   10438486  HIT:   10438423  MISS:         63
cpu0_L2C TRANSLATION ACCESS:     115261  HIT:     112318  MISS:       2943
cpu0_L2C PREFETCH  REQUESTED:          0  ISSUED:          0  USEFUL:          0  USELESS:          0
cpu0_L2C AVERAGE MISS LATENCY: 472.73 cycles
LLC TOTAL     ACCESS:   37011236  HIT:   12372089  MISS:   24639147
LLC LOAD      ACCESS:   26571416  HIT:    1933996  MISS:   24637420
LLC RFO       ACCESS:         25  HIT:         15  MISS:         10
LLC PREFETCH  ACCESS:          0  HIT:          0  MISS:          0
LLC WRITEBACK ACCESS:   10436852  HIT:   10436777  MISS:         75
LLC TRANSLATION ACCESS:       2943  HIT:       1301  MISS:       1642
LLC PREFETCH  REQUESTED:          0  ISSUED:          0  USEFUL:          0  USELESS:          0
LLC AVERAGE MISS LATENCY: 487.211 cycles
~~~~~~~~~~Reuse Distance Profiler output~~~~~~~~~~
0	34515792	7210608
1	18413760	11791536
2	18840480	14448880
3	22307264	18012512
4	24447904	19996848
5	25757264	21301792
6	22695824	21062768
7	21294688	19026544
8	17764976	16114064
9	16188752	14434672
10	14863552	12510736
11	13760400	11525312
12	15235840	12429168
13	15381776	13065968
14	13858016	11274864
15	11515504	9567840
16	12605920	10372944
17	10937200	9175424
18	11834480	10003648
19	9904768	8201840
20	9714784	7620624
21	8639056	6934720
22	8058368	6599488
23	8468080	6884688
24	8625792	7285520
25	8812752	7401488
26	8568688	7646720
27	7932304	7150832
28	7536672	6761744
29	7955664	7231168
30	6698240	5930048
31	6315328	5502272
32	5631072	4862144
33	5482208	4665760
34	5409104	4577920
35	5322432	4523728
36	5510240	4716640
37	5277008	4492672
38	5066368	4337904
39	5146384	4391248
40	4990624	4292720
41	5690496	5042480
42	6541856	5893856
43	6774304	6207744
44	6103824	5573424
45	4918032	4384144
46	4138496	3593840
47	3569472	3025408
48	3091024	2578464
49	2699184	2197504
50	2536928	2093328
51	2387728	1967200
52	2266544	1850944
53	2158320	1784800
54	2139744	1795648
55	2054480	1743568
56	1988368	1693872
57	1944432	1676832
58	1848160	1603760
59	1800448	1572736
60	1742544	1526896
61	1626432	1428512
62	1530128	1348208
63	1479696	1296768
64	2691120	2369840
66	2429824	2150016
68	2240592	1980048
70	2138240	1902640
72	2007376	1807712
74	1912736	1734304
76	1825264	1649984
78	1652832	1476992
80	1617408	1442208
82	1535056	1350912
84	1488192	1316752
86	1375504	1215760
88	1204624	1055568
90	1107776	958976
92	1058400	922352
94	946192	828640
96	885856	790384
98	821408	730336
100	758528	677136
102	751088	688368
104	779008	706960
106	691472	636384
108	684752	635232
110	687472	642016
112	639216	607904
114	602976	572512
116	595152	568240
118	523520	498304
120	511360	487008
122	489120	472272
124	460816	445904
126	446320	432944
128	782144	764272
132	659152	645728
136	571664	561888
140	481376	474720
144	451712	446848
148	406592	403232
152	344720	342048
156	311280	309056
160	344960	343344
164	335184	333952
168	341648	340592
172	310512	309840
176	276512	276032
180	267168	266848
184	227472	227344
188	196112	195968
192	153216	153136
196	120656	120608
200	100256	100224
204	93408	93408
208	93600	93600
212	84736	84720
216	72176	72176
220	58016	58016
224	43680	43680
228	42112	42112
232	55872	55872
236	51680	51680
240	38448	38448
244	37632	37632
248	41760	41760
252	46400	46400
256	130592	130592
264	109520	109520
272	117840	117840
280	109040	109040
288	85456	85456
296	122208	122208
304	142864	142864
312	116064	116064
320	109136	109136
328	99360	99360
336	97008	97008
344	98704	98704
352	92208	92208
360	111904	111904
368	128320	128320
376	113248	113248
384	92864	92864
392	90976	90976
400	73472	73472
408	70144	70144
416	57696	57696
424	67360	67360
432	71888	71888
440	72272	72272
448	84544	84544
456	70304	70304
464	65824	65824
472	82624	82624
480	106960	106960
488	94512	94512
496	86096	86096
504	76112	76112
512	125504	125504
528	95904	95904
544	115184	115184
560	155520	155520
576	231312	231312
592	332944	332944
608	363344	363344
624	345216	345216
640	228000	228000
656	280768	280768
672	390768	390768
688	426928	426928
704	389808	389808
720	268048	268048
736	171136	171136
752	114544	114544
768	84880	84880
784	47232	47232
800	11856	11856
816	7504	7504
832	12208	12208
848	14960	14960
864	15344	15344
880	12800	12800
896	8384	8384
912	10048	10048
928	7648	7648
944	14656	14656
960	7984	7984
976	4608	4608
992	4784	4784
1008	6016	6016
1024	32560	32560
1056	26448	26448
1088	4624	4624
1120	7824	7824
1152	5984	5984
1184	3856	3856
1216	4432	4432
1248	880	880
1280	880	880
1312	3952	3952
1344	4720	4720
1376	6352	6352
1408	6384	6384
1440	7824	7824
1472	4464	4464
1504	1248	1248
1536	160	160
1568	48	48
1600	1184	1184
1632	6288	6288
1664	3408	3408
1696	768	768
1728	6512	6512
1760	5856	5856
1792	192	192
1824	16	16
1856	32	32
1888	16	16
1920	0	0
1952	0	0
1984	0	0
2016	0	0
2048	0	0
2112	32	32
2176	48	48
2240	32	32
2304	0	0
2368	0	0
2432	0	0
2496	0	0
2560	0	0
2624	0	0
2688	0	0
2752	0	0
2816	0	0
2880	0	0
2944	0	0
3008	0	0
3072	0	0
3136	0	0
3200	0	0
3264	0	0
3328	0	0
3392	16	16
3456	1664	1664
3520	15792	15792
3584	20240	20240
3648	5088	5088
3712	336	336
3776	0	0
3840	0	0
3904	0	0
3968	0	0
4032	0	0
4096	21184	21184
4224	1071056	1071056
4352	1956736	1956736
4480	283904	283904
4608	4864	4864
4736	0	0
4864	16	16
4992	96	96
5120	722688	722688
5248	1124992	1124992
5376	48224	48224
5504	0	0
5632	0	0
5760	0	0
5888	0	0
6016	0	0
6144	0	0
6272	0	0
6400	0	0
6528	0	0
6656	0	0
6784	0	0
6912	0	0
7040	0	0
7168	0	0
7296	0	0
7424	0	0
7552	0	0
7680	0	0
7808	0	0
7936	0	0
8064	0	0
8192	0	0
8448	0	0
8704	0	0
8960	0	0
9216	32	32
9472	32	32
9728	16	16
9984	0	0
10240	0	0
10496	0	0
10752	0	0
11008	0	0
11264	192	192
11520	0	0
11776	0	0
12032	0	0
12288	0	0
12544	0	0
12800	0	0
13056	0	0
13312	0	0
13568	0	0
13824	0	0
14080	0	0
14336	0	0
14592	0	0
14848	0	0
15104	0	0
15360	0	0
15616	0	0
15872	0	0
16128	0	0
16384	0	0
16896	0	0
17408	0	0
17920	0	0
18432	32	32
18944	0	0
19456	0	0
19968	0	0
20480	108368	108368
20992	205056	205056
21504	432	432
22016	0	0
22528	0	0
23040	32	32
23552	0	0
24064	0	0
24576	0	0
25088	16	16
25600	32	32
26112	48	48
26624	0	0
27136	0	0
27648	0	0
28160	0	0
28672	16	16
29184	16	16
29696	16	16
30208	0	0
30720	0	0
31232	0	0
31744	16	16
32256	16	16
32768	32	32
33792	0	0
34816	16	16
35840	325216	325216
36864	13360	13360
37888	0	0
38912	0	0
39936	0	0
40960	0	0
41984	0	0
43008	0	0
44032	16	0
45056	0	0
46080	0	0
47104	0	0
48128	0	0
49152	0	0
50176	0	0
51200	0	0
52224	0	0
53248	0	0
54272	0	0
55296	0	0
56320	0	0
57344	0	0
58368	0	0
59392	16	16
60416	0	0
61440	0	0
62464	0	0
63488	32	32
64512	0	0
65536	16	16
67584	0	0
69632	0	0
71680	0	0
73728	0	0
75776	0	0
77824	0	0
79872	0	0
81920	0	0
83968	16	16
86016	0	0
88064	0	0
90112	0	0
92160	16	16
94208	16	16
96256	0	0
98304	0	0
100352	0	0
102400	0	0
104448	0	0
106496	0	0
108544	0	0
110592	16	16
112640	0	0
114688	32	32
116736	32	32
118784	16	16
120832	0	0
122880	0	0
124928	0	0
126976	0	0
129024	0	0
131072	0	0
135168	32	32
139264	16	16
143360	0	0
147456	16	16
151552	0	0
155648	64	64
159744	16	16
163840	16	16
167936	32	32
172032	0	0
176128	48	48
180224	32	32
184320	0	0
188416	48	48
192512	16	16
196608	32	32
200704	16	16
204800	16	16
208896	32	32
212992	16	16
217088	32	32
221184	0	0
225280	0	0
229376	32	32
233472	0	0
237568	16	16
241664	16	16
245760	32	32
249856	0	0
253952	32	32
258048	0	0
262144	32	32
270336	48	48
278528	48	48
286720	16	16
294912	0	0
303104	16	16
311296	16	16
319488	48	48
327680	48	48
335872	32	32
344064	32	32
352256	32	32
360448	16	16
368640	64	64
376832	80	80
385024	32	32
393216	16	16
401408	32	32
409600	16	16
417792	48	48
425984	16	16
434176	16	16
442368	32	32
450560	32	32
458752	32	32
466944	48	48
475136	16	16
483328	16	16
491520	48	48
499712	80	80
507904	16	16
516096	0	0
524288	48	48
540672	32	32
557056	32	32
573440	80	80
589824	48	48
606208	80	80
622592	64	64
638976	16	16
655360	71728	71728
671744	1195328	1195328
688128	80	80
704512	48	48
720896	675104	675104
737280	0	0
753664	0	0
770048	0	0
786432	0	0
802816	0	0
819200	0	0
835584	0	0
851968	0	0
868352	0	0
884736	0	0
901120	0	0
917504	0	0
933888	0	0
950272	0	0
966656	0	0
983040	16	16
999424	0	0
1015808	0	0
1032192	0	0
1048576	16	16
1081344	16	16
1114112	0	0
1146880	32	32
1179648	0	0
1212416	0	0
1245184	0	0
1277952	0	0
1310720	0	0
1343488	0	0
1376256	16	16
1409024	0	0
1441792	0	0
1474560	0	0
1507328	0	0
1540096	0	0
1572864	0	0
1605632	0	0
1638400	0	0
1671168	0	0
1703936	0	0
1736704	0	0
1769472	0	0
1802240	0	0
1835008	0	0
1867776	0	0
1900544	0	0
1933312	0	0
1966080	0	0
1998848	0	0
2031616	0	0
2064384	0	0
2097152	0	0
2162688	0	0
2228224	0	0
2293760	16	16
2359296	0	0
2424832	0	0
2490368	16	16
2555904	0	0
2621440	0	0
2686976	16	16
2752512	0	0
2818048	0	0
2883584	0	0
2949120	0	0
3014656	0	0
3080192	0	0
3145728	0	0
3211264	0	0
3276800	16	16
3342336	0	0
3407872	0	0
3473408	0	0
3538944	0	0
3604480	0	0
3670016	0	0
3735552	0	0
3801088	0	0
3866624	16	16
3932160	16	16
3997696	16	16
4063232	0	0
4128768	23488	23488
4194304	2926544	2926544
4325376	8624	8624
4456448	9728	9728
4587520	9104	9104
4718592	9488	9488
4849664	8928	8928
4980736	1665520	1665520
5111808	64	64
5242880	0	0
5373952	0	0
5505024	304	304
5636096	736	736
5767168	384	384
5898240	528	528
6029312	528	528
6160384	368	368
6291456	352	352
6422528	576	576
6553600	368	368
6684672	304	304
6815744	368	368
6946816	304	304
7077888	336	336
7208960	352	352
7340032	368	368
7471104	320	320
7602176	304	304
7733248	288	288
7864320	448	448
7995392	320	320
8126464	320	320
8257536	368	368
8388608	864	864
8650752	816	816
8912896	832	832
9175040	784	784
9437184	832	832
9699328	688	688
9961472	752	752
10223616	592	592
10485760	640	640
10747904	944	944
11010048	864	864
11272192	848	848
11534336	912	912
11796480	800	800
12058624	672	672
12320768	944	944
12582912	832	832
12845056	1168	1168
13107200	976	976
13369344	896	896
13631488	992	992
13893632	624	624
14155776	1344	1344
14417920	2352	2352
14680064	2800	2800
14942208	2864	2864
15204352	2240	2240
15466496	2144	2144
15728640	2320	2320
15990784	2336	2336
16252928	3296	3296
16515072	3152	3152
16777216	9728	9728
17301504	9744	9744
17825792	9936	9936
18350080	10576	10576
18874368	10624	10624
19398656	9616	9616
19922944	10496	10496
20447232	10208	10208
20971520	9936	9936
21495808	10176	10176
22020096	10592	10592
22544384	9728	9728
23068672	10096	10096
23592960	10320	10320
24117248	10080	10080
24641536	10192	10192
25165824	10544	10544
25690112	10592	10592
26214400	10496	10496
26738688	10288	10288
27262976	10672	10672
27787264	10032	10032
28311552	10112	10112
28835840	9808	9808
29360128	9424	9424
29884416	9488	9488
30408704	9776	9776
30932992	9824	9824
31457280	9776	9776
31981568	9792	9792
32505856	9696	9696
33030144	9792	9792
33554432	21008	21008
34603008	20720	20720
35651584	20944	20944
36700160	20384	20384
37748736	20256	20256
38797312	20272	20272
39845888	20624	20624
40894464	20864	20864
41943040	20832	20832
42991616	20160	20160
44040192	20448	20448
45088768	19536	19536
46137344	20896	20896
47185920	21344	21344
48234496	20944	20944
49283072	20880	20880
50331648	21040	21040
51380224	19616	19616
52428800	19680	19680
53477376	20448	20448
54525952	20256	20256
55574528	19920	19920
56623104	21024	21024
57671680	19456	19456
58720256	19712	19712
59768832	20576	20576
60817408	20560	20560
61865984	20304	20304
62914560	20128	20128
63963136	20320	20320
65011712	19616	19616
66060288	19712	19712
67108864	40176	40176
69206016	41440	41440
71303168	40912	40912
73400320	40416	40416
75497472	39936	39936
77594624	40896	40896
79691776	41216	41216
81788928	39440	39440
83886080	42016	42016
85983232	40272	40272
88080384	41344	41344
90177536	41600	41600
92274688	40224	40224
94371840	40848	40848
96468992	40640	40640
98566144	34192	34192
100663296	34432	34432
102760448	35008	35008
104857600	33616	33616
106954752	33984	33984
109051904	34128	34128
111149056	35008	35008
113246208	35040	35040
115343360	34304	34304
117440512	33728	33728
119537664	35568	35568
121634816	34336	34336
123731968	34544	34544
125829120	33680	33680
127926272	33744	33744
130023424	34192	34192
132120576	33984	33984
134217728	70240	70240
138412032	68224	68224
142606336	68064	68064
146800640	69136	69136
150994944	69552	69552
155189248	69808	69808
159383552	68736	68736
163577856	67968	67968
167772160	56112	56112
171966464	30704	30704
176160768	31040	31040
180355072	31168	31168
184549376	19488	19488
188743680	30368	30368
192937984	132400	132400
197132288	78576	78576
201326592	6208	6208
205520896	6096	6096
209715200	5728	5728
213909504	6080	6080
218103808	5552	5552
222298112	5936	5936
226492416	6128	6128
230686720	6192	6192
234881024	5568	5568
239075328	6032	6032
243269632	6176	6176
247463936	6000	6000
251658240	6208	6208
255852544	6608	6608
260046848	6128	6128
264241152	5984	5984
268435456	12832	12832
276824064	12384	12384
285212672	12160	12160
293601280	12432	12432
301989888	12464	12464
310378496	12208	12208
318767104	12384	12384
327155712	12064	12064
335544320	11648	11648
343932928	12160	12160
352321536	10416	10416
360710144	9824	9824
369098752	9152	9152
377487360	10096	10096
385875968	10112	10112
394264576	10416	10416
402653184	10176	10176
411041792	10224	10224
419430400	9648	9648
427819008	9520	9520
436207616	10304	10304
444596224	10160	10160
452984832	9024	9024
461373440	9504	9504
469762048	9776	9776
478150656	10064	10064
486539264	1680	1680
494927872	512	512
503316480	720	720
511705088	576	576
520093696	656	656
528482304	528	528
536870912	1328	1328
553648128	160	160
570425344	0	0
587202560	0	0
603979776	0	0
620756992	0	0
637534208	0	0
654311424	0	0
671088640	0	0
687865856	0	0
704643072	0	0
721420288	0	0
738197504	0	0
754974720	0	0
771751936	0	0
788529152	0	0
805306368	0	0
822083584	0	0
838860800	0	0
855638016	0	0
872415232	0	0
889192448	0	0
905969664	0	0
922746880	0	0
939524096	0	0
956301312	0	0
973078528	0	0
989855744	0	0
1006632960	0	0
1023410176	0	0
1040187392	0	0
1056964608	0	0
1073741824	0	0
1107296256	0	0
1140850688	0	0
1174405120	0	0
1207959552	0	0
1241513984	0	0
1275068416	0	0
1308622848	0	0
1342177280	0	0
1375731712	0	0
1409286144	0	0
1442840576	0	0
1476395008	0	0
1509949440	0	0
1543503872	0	0
1577058304	0	0
1610612736	0	0
1644167168	0	0
1677721600	0	0
1711276032	0	0
1744830464	0	0
1778384896	0	0
1811939328	0	0
1845493760	0	0
1879048192	0	0
1912602624	0	0
1946157056	0	0
1979711488	0	0
2013265920	0	0
2046820352	0	0
2080374784	0	0
2113929216	0	0
2147483648	0	0
2214592512	0	0
2281701376	0	0
2348810240	0	0
2415919104	0	0
2483027968	0	0
2550136832	0	0
2617245696	0	0
2684354560	0	0
2751463424	0	0
2818572288	0	0
2885681152	0	0
2952790016	0	0
3019898880	0	0
3087007744	0	0
3154116608	0	0
3221225472	0	0
3288334336	0	0
3355443200	0	0
3422552064	0	0
3489660928	0	0
3556769792	0	0
3623878656	0	0
3690987520	0	0
3758096384	0	0
3825205248	0	0
3892314112	0	0
3959422976	0	0
4026531840	0	0
4093640704	0	0
4160749568	0	0
4227858432	0	0
~~~~~~~~~~Reuse Distance Profiler output end~~~~~~~~~~

DRAM Statistics
 CHANNEL 0
 RQ ROW_BUFFER_HIT:     255413  ROW_BUFFER_MISS:   24383661
 DBUS AVG_CONGESTED_CYCLE:    3.98436
 WQ ROW_BUFFER_HIT:     121390  ROW_BUFFER_MISS:   10309249  FULL:          0


CPU 0 Branch Prediction Accuracy: 92.5758% MPKI: 0.573677 Average ROB Occupancy at Mispredict: 335.681
Branch type MPKI
BRANCH_DIRECT_JUMP: 4e-06
BRANCH_INDIRECT: 0
BRANCH_CONDITIONAL: 0.573666
BRANCH_DIRECT_CALL: 3.33333e-06
BRANCH_INDIRECT_CALL: 0
BRANCH_RETURN: 3.33333e-06

