
*** ChampSim Multicore Out-of-Order Simulator ***

Warmup Instructions: 500000000
Simulation Instructions: 1500000000
Number of CPUs: 1
Off-chip DRAM Size: 4 GiB Channels: 1 Width: 64-bit Data Rate: 3200 MT/s

VirtualMemory physical capacity: 8588881920 num_ppages: 2096895
VirtualMemory page size: 4096 log2_page_size: 12

CPU 0 runs traces/654.roms_s-293B.champsimtrace.xz
CPU 0 Bimodal branch predictor
Basic BTB sets: 1024 ways: 8 indirect buffer size: 4096 RAS size: 64
Initializing LRU.
Initializing LRU.
Initializing LRU.
Initializing LRU.
Initializing rdLRU.
Initializing LRU.
Initializing LRU.
Heartbeat CPU 0 instructions: 10000001 cycles: 2839581 heartbeat IPC: 3.52165 cumulative IPC: 3.52165 (Simulation time: 0 hr 1 min 11 sec) 
Heartbeat CPU 0 instructions: 20000004 cycles: 5872056 heartbeat IPC: 3.29764 cumulative IPC: 3.40596 (Simulation time: 0 hr 2 min 31 sec) 
Heartbeat CPU 0 instructions: 30000001 cycles: 8711510 heartbeat IPC: 3.5218 cumulative IPC: 3.44372 (Simulation time: 0 hr 3 min 42 sec) 
Heartbeat CPU 0 instructions: 40000002 cycles: 11743968 heartbeat IPC: 3.29766 cumulative IPC: 3.406 (Simulation time: 0 hr 5 min 1 sec) 
Heartbeat CPU 0 instructions: 50000004 cycles: 14583426 heartbeat IPC: 3.5218 cumulative IPC: 3.42855 (Simulation time: 0 hr 6 min 14 sec) 
Heartbeat CPU 0 instructions: 60000002 cycles: 17615897 heartbeat IPC: 3.29764 cumulative IPC: 3.40601 (Simulation time: 0 hr 7 min 31 sec) 
Heartbeat CPU 0 instructions: 70000004 cycles: 20455353 heartbeat IPC: 3.5218 cumulative IPC: 3.42209 (Simulation time: 0 hr 8 min 44 sec) 
Heartbeat CPU 0 instructions: 80000003 cycles: 23469353 heartbeat IPC: 3.31785 cumulative IPC: 3.4087 (Simulation time: 0 hr 10 min 1 sec) 
Heartbeat CPU 0 instructions: 90000004 cycles: 26327267 heartbeat IPC: 3.49906 cumulative IPC: 3.41851 (Simulation time: 0 hr 11 min 17 sec) 
Heartbeat CPU 0 instructions: 100000003 cycles: 29251165 heartbeat IPC: 3.42009 cumulative IPC: 3.41867 (Simulation time: 0 hr 12 min 36 sec) 
Heartbeat CPU 0 instructions: 110000002 cycles: 32199195 heartbeat IPC: 3.3921 cumulative IPC: 3.41623 (Simulation time: 0 hr 13 min 54 sec) 
Heartbeat CPU 0 instructions: 120000004 cycles: 35050251 heartbeat IPC: 3.50747 cumulative IPC: 3.42366 (Simulation time: 0 hr 15 min 11 sec) 
Heartbeat CPU 0 instructions: 130000002 cycles: 38272011 heartbeat IPC: 3.10389 cumulative IPC: 3.39674 (Simulation time: 0 hr 16 min 34 sec) 
Heartbeat CPU 0 instructions: 140000001 cycles: 42100030 heartbeat IPC: 2.61232 cumulative IPC: 3.32541 (Simulation time: 0 hr 18 min 5 sec) 
Heartbeat CPU 0 instructions: 150000004 cycles: 45928055 heartbeat IPC: 2.61231 cumulative IPC: 3.26598 (Simulation time: 0 hr 19 min 39 sec) 
Heartbeat CPU 0 instructions: 160000001 cycles: 49756076 heartbeat IPC: 2.61232 cumulative IPC: 3.21569 (Simulation time: 0 hr 21 min 12 sec) 
Heartbeat CPU 0 instructions: 170000002 cycles: 53584100 heartbeat IPC: 2.61231 cumulative IPC: 3.17258 (Simulation time: 0 hr 22 min 38 sec) 
Heartbeat CPU 0 instructions: 180000001 cycles: 57412125 heartbeat IPC: 2.61231 cumulative IPC: 3.13523 (Simulation time: 0 hr 24 min 7 sec) 
Heartbeat CPU 0 instructions: 190000002 cycles: 61240153 heartbeat IPC: 2.61231 cumulative IPC: 3.10254 (Simulation time: 0 hr 25 min 33 sec) 
Heartbeat CPU 0 instructions: 200000002 cycles: 65067457 heartbeat IPC: 2.61281 cumulative IPC: 3.07373 (Simulation time: 0 hr 27 min 3 sec) 
Heartbeat CPU 0 instructions: 210000002 cycles: 68895480 heartbeat IPC: 2.61231 cumulative IPC: 3.0481 (Simulation time: 0 hr 28 min 32 sec) 
Heartbeat CPU 0 instructions: 220000004 cycles: 72723501 heartbeat IPC: 2.61232 cumulative IPC: 3.02516 (Simulation time: 0 hr 30 min 5 sec) 
Heartbeat CPU 0 instructions: 230000002 cycles: 76551520 heartbeat IPC: 2.61232 cumulative IPC: 3.00451 (Simulation time: 0 hr 31 min 32 sec) 
Heartbeat CPU 0 instructions: 240000003 cycles: 80379548 heartbeat IPC: 2.61231 cumulative IPC: 2.98583 (Simulation time: 0 hr 33 min 4 sec) 
Heartbeat CPU 0 instructions: 250000000 cycles: 84207562 heartbeat IPC: 2.61232 cumulative IPC: 2.96885 (Simulation time: 0 hr 34 min 27 sec) 
Heartbeat CPU 0 instructions: 260000000 cycles: 88035582 heartbeat IPC: 2.61232 cumulative IPC: 2.95335 (Simulation time: 0 hr 35 min 59 sec) 
Heartbeat CPU 0 instructions: 270000003 cycles: 91863603 heartbeat IPC: 2.61232 cumulative IPC: 2.93914 (Simulation time: 0 hr 37 min 31 sec) 
Heartbeat CPU 0 instructions: 280000004 cycles: 95691624 heartbeat IPC: 2.61232 cumulative IPC: 2.92607 (Simulation time: 0 hr 38 min 44 sec) 
Heartbeat CPU 0 instructions: 290000003 cycles: 99519642 heartbeat IPC: 2.61232 cumulative IPC: 2.914 (Simulation time: 0 hr 40 min 0 sec) 
Heartbeat CPU 0 instructions: 300000004 cycles: 103347663 heartbeat IPC: 2.61232 cumulative IPC: 2.90282 (Simulation time: 0 hr 41 min 25 sec) 
Heartbeat CPU 0 instructions: 310000000 cycles: 107174944 heartbeat IPC: 2.61282 cumulative IPC: 2.89247 (Simulation time: 0 hr 42 min 48 sec) 
Heartbeat CPU 0 instructions: 320000002 cycles: 111002968 heartbeat IPC: 2.61231 cumulative IPC: 2.88281 (Simulation time: 0 hr 44 min 4 sec) 
Heartbeat CPU 0 instructions: 330000001 cycles: 114830986 heartbeat IPC: 2.61232 cumulative IPC: 2.87379 (Simulation time: 0 hr 45 min 27 sec) 
Heartbeat CPU 0 instructions: 340000000 cycles: 118659008 heartbeat IPC: 2.61231 cumulative IPC: 2.86535 (Simulation time: 0 hr 46 min 58 sec) 
Heartbeat CPU 0 instructions: 350000000 cycles: 122487028 heartbeat IPC: 2.61232 cumulative IPC: 2.85745 (Simulation time: 0 hr 48 min 15 sec) 
Heartbeat CPU 0 instructions: 360000003 cycles: 126315049 heartbeat IPC: 2.61232 cumulative IPC: 2.85002 (Simulation time: 0 hr 49 min 36 sec) 
Heartbeat CPU 0 instructions: 370000000 cycles: 130143071 heartbeat IPC: 2.61231 cumulative IPC: 2.84302 (Simulation time: 0 hr 50 min 58 sec) 
Heartbeat CPU 0 instructions: 380000002 cycles: 133971095 heartbeat IPC: 2.61231 cumulative IPC: 2.83643 (Simulation time: 0 hr 52 min 5 sec) 
Heartbeat CPU 0 instructions: 390000003 cycles: 137799117 heartbeat IPC: 2.61232 cumulative IPC: 2.83021 (Simulation time: 0 hr 53 min 39 sec) 
Heartbeat CPU 0 instructions: 400000003 cycles: 141627140 heartbeat IPC: 2.61231 cumulative IPC: 2.82432 (Simulation time: 0 hr 54 min 57 sec) 
Heartbeat CPU 0 instructions: 410000001 cycles: 145455168 heartbeat IPC: 2.61231 cumulative IPC: 2.81874 (Simulation time: 0 hr 56 min 24 sec) 
Heartbeat CPU 0 instructions: 420000000 cycles: 149282462 heartbeat IPC: 2.61281 cumulative IPC: 2.81346 (Simulation time: 0 hr 57 min 56 sec) 
Heartbeat CPU 0 instructions: 430000001 cycles: 153110482 heartbeat IPC: 2.61232 cumulative IPC: 2.80843 (Simulation time: 0 hr 59 min 18 sec) 
Heartbeat CPU 0 instructions: 440000001 cycles: 156938502 heartbeat IPC: 2.61232 cumulative IPC: 2.80365 (Simulation time: 1 hr 0 min 37 sec) 
Heartbeat CPU 0 instructions: 450000004 cycles: 160766524 heartbeat IPC: 2.61232 cumulative IPC: 2.79909 (Simulation time: 1 hr 2 min 3 sec) 
Heartbeat CPU 0 instructions: 460000001 cycles: 164594544 heartbeat IPC: 2.61232 cumulative IPC: 2.79475 (Simulation time: 1 hr 3 min 37 sec) 
Heartbeat CPU 0 instructions: 470000000 cycles: 168422568 heartbeat IPC: 2.61231 cumulative IPC: 2.7906 (Simulation time: 1 hr 5 min 7 sec) 
Heartbeat CPU 0 instructions: 480000004 cycles: 172250585 heartbeat IPC: 2.61232 cumulative IPC: 2.78664 (Simulation time: 1 hr 6 min 34 sec) 
Heartbeat CPU 0 instructions: 490000001 cycles: 176078604 heartbeat IPC: 2.61232 cumulative IPC: 2.78285 (Simulation time: 1 hr 8 min 1 sec) 
Heartbeat CPU 0 instructions: 500000001 cycles: 179906627 heartbeat IPC: 2.61231 cumulative IPC: 2.77922 (Simulation time: 1 hr 9 min 16 sec) 

Warmup complete CPU 0 instructions: 500000001 cycles: 179906627 (Simulation time: 1 hr 9 min 16 sec) 

Heartbeat CPU 0 instructions: 510000002 cycles: 192993451 heartbeat IPC: 0.764127 cumulative IPC: 0.764127 (Simulation time: 1 hr 11 min 59 sec) 
Heartbeat CPU 0 instructions: 520000000 cycles: 206087585 heartbeat IPC: 0.763701 cumulative IPC: 0.763914 (Simulation time: 1 hr 15 min 0 sec) 
Heartbeat CPU 0 instructions: 530000000 cycles: 219182274 heartbeat IPC: 0.763668 cumulative IPC: 0.763832 (Simulation time: 1 hr 17 min 50 sec) 
Heartbeat CPU 0 instructions: 540000003 cycles: 232267602 heartbeat IPC: 0.764215 cumulative IPC: 0.763928 (Simulation time: 1 hr 20 min 53 sec) 
Heartbeat CPU 0 instructions: 550000004 cycles: 245354652 heartbeat IPC: 0.764114 cumulative IPC: 0.763965 (Simulation time: 1 hr 23 min 48 sec) 
Heartbeat CPU 0 instructions: 560000001 cycles: 258437931 heartbeat IPC: 0.764334 cumulative IPC: 0.764027 (Simulation time: 1 hr 26 min 34 sec) 
Heartbeat CPU 0 instructions: 570000003 cycles: 271536558 heartbeat IPC: 0.763439 cumulative IPC: 0.763943 (Simulation time: 1 hr 29 min 41 sec) 
Heartbeat CPU 0 instructions: 580000000 cycles: 284624224 heartbeat IPC: 0.764078 cumulative IPC: 0.763959 (Simulation time: 1 hr 33 min 6 sec) 
Heartbeat CPU 0 instructions: 590000003 cycles: 297716608 heartbeat IPC: 0.763803 cumulative IPC: 0.763942 (Simulation time: 1 hr 36 min 18 sec) 
Heartbeat CPU 0 instructions: 600000004 cycles: 310806721 heartbeat IPC: 0.763935 cumulative IPC: 0.763941 (Simulation time: 1 hr 39 min 5 sec) 
Heartbeat CPU 0 instructions: 610000000 cycles: 323892403 heartbeat IPC: 0.764194 cumulative IPC: 0.763964 (Simulation time: 1 hr 41 min 57 sec) 
Heartbeat CPU 0 instructions: 620000003 cycles: 336980616 heartbeat IPC: 0.764046 cumulative IPC: 0.763971 (Simulation time: 1 hr 44 min 44 sec) 
Heartbeat CPU 0 instructions: 630000000 cycles: 350067993 heartbeat IPC: 0.764095 cumulative IPC: 0.763981 (Simulation time: 1 hr 47 min 25 sec) 
Heartbeat CPU 0 instructions: 640000001 cycles: 363161476 heartbeat IPC: 0.763739 cumulative IPC: 0.763963 (Simulation time: 1 hr 50 min 36 sec) 
Heartbeat CPU 0 instructions: 650000003 cycles: 376253483 heartbeat IPC: 0.763825 cumulative IPC: 0.763954 (Simulation time: 1 hr 53 min 54 sec) 
Heartbeat CPU 0 instructions: 660000001 cycles: 389353165 heartbeat IPC: 0.763377 cumulative IPC: 0.763918 (Simulation time: 1 hr 57 min 5 sec) 
Heartbeat CPU 0 instructions: 670000001 cycles: 402440962 heartbeat IPC: 0.764071 cumulative IPC: 0.763927 (Simulation time: 2 hr 0 min 30 sec) 
Heartbeat CPU 0 instructions: 680000004 cycles: 415525825 heartbeat IPC: 0.764242 cumulative IPC: 0.763945 (Simulation time: 2 hr 3 min 33 sec) 
Heartbeat CPU 0 instructions: 690000001 cycles: 428617005 heartbeat IPC: 0.763873 cumulative IPC: 0.763941 (Simulation time: 2 hr 7 min 0 sec) 
Heartbeat CPU 0 instructions: 700000003 cycles: 441701279 heartbeat IPC: 0.764276 cumulative IPC: 0.763958 (Simulation time: 2 hr 10 min 17 sec) 
Heartbeat CPU 0 instructions: 710000000 cycles: 454787513 heartbeat IPC: 0.764162 cumulative IPC: 0.763967 (Simulation time: 2 hr 13 min 20 sec) 
Heartbeat CPU 0 instructions: 720000002 cycles: 467875119 heartbeat IPC: 0.764082 cumulative IPC: 0.763972 (Simulation time: 2 hr 16 min 28 sec) 
Heartbeat CPU 0 instructions: 730000004 cycles: 480982797 heartbeat IPC: 0.762912 cumulative IPC: 0.763926 (Simulation time: 2 hr 19 min 14 sec) 
Heartbeat CPU 0 instructions: 740000002 cycles: 494058012 heartbeat IPC: 0.764806 cumulative IPC: 0.763963 (Simulation time: 2 hr 21 min 54 sec) 
Heartbeat CPU 0 instructions: 750000002 cycles: 507033918 heartbeat IPC: 0.770659 cumulative IPC: 0.764229 (Simulation time: 2 hr 25 min 18 sec) 
Heartbeat CPU 0 instructions: 760000000 cycles: 520013342 heartbeat IPC: 0.77045 cumulative IPC: 0.764466 (Simulation time: 2 hr 28 min 18 sec) 
Heartbeat CPU 0 instructions: 770000001 cycles: 537417497 heartbeat IPC: 0.574575 cumulative IPC: 0.755222 (Simulation time: 2 hr 31 min 22 sec) 
Heartbeat CPU 0 instructions: 780000004 cycles: 564092630 heartbeat IPC: 0.374881 cumulative IPC: 0.728814 (Simulation time: 2 hr 36 min 17 sec) 
Heartbeat CPU 0 instructions: 790000004 cycles: 593075336 heartbeat IPC: 0.345033 cumulative IPC: 0.701892 (Simulation time: 2 hr 40 min 53 sec) 
Heartbeat CPU 0 instructions: 800000004 cycles: 620127511 heartbeat IPC: 0.369656 cumulative IPC: 0.681476 (Simulation time: 2 hr 44 min 38 sec) 
Heartbeat CPU 0 instructions: 810000000 cycles: 650217161 heartbeat IPC: 0.33234 cumulative IPC: 0.659139 (Simulation time: 2 hr 48 min 39 sec) 
Heartbeat CPU 0 instructions: 820000003 cycles: 676035079 heartbeat IPC: 0.387328 cumulative IPC: 0.644994 (Simulation time: 2 hr 52 min 0 sec) 
Heartbeat CPU 0 instructions: 830000002 cycles: 703189396 heartbeat IPC: 0.368266 cumulative IPC: 0.630634 (Simulation time: 2 hr 55 min 25 sec) 
Heartbeat CPU 0 instructions: 840000000 cycles: 730737284 heartbeat IPC: 0.363004 cumulative IPC: 0.61725 (Simulation time: 2 hr 58 min 52 sec) 
Heartbeat CPU 0 instructions: 850000001 cycles: 757852746 heartbeat IPC: 0.368793 cumulative IPC: 0.605593 (Simulation time: 3 hr 2 min 15 sec) 
Heartbeat CPU 0 instructions: 860000002 cycles: 785431890 heartbeat IPC: 0.362593 cumulative IPC: 0.594525 (Simulation time: 3 hr 5 min 43 sec) 
Heartbeat CPU 0 instructions: 870000000 cycles: 811644443 heartbeat IPC: 0.381497 cumulative IPC: 0.585686 (Simulation time: 3 hr 9 min 1 sec) 
Heartbeat CPU 0 instructions: 880000003 cycles: 838965105 heartbeat IPC: 0.366023 cumulative IPC: 0.57658 (Simulation time: 3 hr 12 min 25 sec) 
Heartbeat CPU 0 instructions: 890000000 cycles: 866112730 heartbeat IPC: 0.368356 cumulative IPC: 0.568342 (Simulation time: 3 hr 15 min 50 sec) 
Heartbeat CPU 0 instructions: 900000002 cycles: 893494783 heartbeat IPC: 0.365203 cumulative IPC: 0.560547 (Simulation time: 3 hr 19 min 14 sec) 
Heartbeat CPU 0 instructions: 910000003 cycles: 919463123 heartbeat IPC: 0.385084 cumulative IPC: 0.554386 (Simulation time: 3 hr 22 min 30 sec) 
Heartbeat CPU 0 instructions: 920000001 cycles: 945310927 heartbeat IPC: 0.38688 cumulative IPC: 0.54873 (Simulation time: 3 hr 25 min 45 sec) 
Heartbeat CPU 0 instructions: 930000004 cycles: 972897531 heartbeat IPC: 0.362495 cumulative IPC: 0.542251 (Simulation time: 3 hr 29 min 12 sec) 
Heartbeat CPU 0 instructions: 940000004 cycles: 1000147424 heartbeat IPC: 0.366974 cumulative IPC: 0.536428 (Simulation time: 3 hr 32 min 38 sec) 
Heartbeat CPU 0 instructions: 950000003 cycles: 1027643008 heartbeat IPC: 0.363695 cumulative IPC: 0.530825 (Simulation time: 3 hr 36 min 3 sec) 
Heartbeat CPU 0 instructions: 960000000 cycles: 1055020568 heartbeat IPC: 0.365263 cumulative IPC: 0.525646 (Simulation time: 3 hr 39 min 30 sec) 
Heartbeat CPU 0 instructions: 970000003 cycles: 1085227064 heartbeat IPC: 0.331055 cumulative IPC: 0.519153 (Simulation time: 3 hr 43 min 14 sec) 
Heartbeat CPU 0 instructions: 980000000 cycles: 1111348072 heartbeat IPC: 0.382834 cumulative IPC: 0.51533 (Simulation time: 3 hr 46 min 32 sec) 
Heartbeat CPU 0 instructions: 990000003 cycles: 1140596292 heartbeat IPC: 0.341901 cumulative IPC: 0.51005 (Simulation time: 3 hr 50 min 8 sec) 
Heartbeat CPU 0 instructions: 1000000002 cycles: 1167796480 heartbeat IPC: 0.367644 cumulative IPC: 0.506129 (Simulation time: 3 hr 53 min 32 sec) 
Heartbeat CPU 0 instructions: 1010000002 cycles: 1196179246 heartbeat IPC: 0.352326 cumulative IPC: 0.501834 (Simulation time: 3 hr 57 min 3 sec) 
Heartbeat CPU 0 instructions: 1020000001 cycles: 1228282264 heartbeat IPC: 0.311497 cumulative IPC: 0.496005 (Simulation time: 4 hr 1 min 1 sec) 
Heartbeat CPU 0 instructions: 1030000004 cycles: 1236980390 heartbeat IPC: 1.14967 cumulative IPC: 0.501384 (Simulation time: 4 hr 2 min 25 sec) 
Heartbeat CPU 0 instructions: 1040000003 cycles: 1244916482 heartbeat IPC: 1.26007 cumulative IPC: 0.507038 (Simulation time: 4 hr 3 min 43 sec) 
Heartbeat CPU 0 instructions: 1050000004 cycles: 1252722041 heartbeat IPC: 1.28114 cumulative IPC: 0.51267 (Simulation time: 4 hr 5 min 0 sec) 
Heartbeat CPU 0 instructions: 1060000004 cycles: 1260065516 heartbeat IPC: 1.36175 cumulative IPC: 0.518442 (Simulation time: 4 hr 6 min 15 sec) 
Heartbeat CPU 0 instructions: 1070000000 cycles: 1268265590 heartbeat IPC: 1.2195 cumulative IPC: 0.523724 (Simulation time: 4 hr 7 min 35 sec) 
Heartbeat CPU 0 instructions: 1080000004 cycles: 1275299299 heartbeat IPC: 1.42173 cumulative IPC: 0.52949 (Simulation time: 4 hr 8 min 48 sec) 
Heartbeat CPU 0 instructions: 1090000004 cycles: 1283872281 heartbeat IPC: 1.16646 cumulative IPC: 0.534437 (Simulation time: 4 hr 10 min 10 sec) 
Heartbeat CPU 0 instructions: 1100000004 cycles: 1290761117 heartbeat IPC: 1.45162 cumulative IPC: 0.540125 (Simulation time: 4 hr 11 min 22 sec) 
Heartbeat CPU 0 instructions: 1110000004 cycles: 1299599750 heartbeat IPC: 1.1314 cumulative IPC: 0.544792 (Simulation time: 4 hr 12 min 46 sec) 
Heartbeat CPU 0 instructions: 1120000001 cycles: 1306536200 heartbeat IPC: 1.44166 cumulative IPC: 0.550314 (Simulation time: 4 hr 13 min 58 sec) 
Heartbeat CPU 0 instructions: 1130000002 cycles: 1315299467 heartbeat IPC: 1.14113 cumulative IPC: 0.554874 (Simulation time: 4 hr 15 min 21 sec) 
Heartbeat CPU 0 instructions: 1140000004 cycles: 1322213590 heartbeat IPC: 1.44632 cumulative IPC: 0.56027 (Simulation time: 4 hr 16 min 33 sec) 
Heartbeat CPU 0 instructions: 1150000004 cycles: 1330366127 heartbeat IPC: 1.22661 cumulative IPC: 0.564992 (Simulation time: 4 hr 17 min 53 sec) 
Heartbeat CPU 0 instructions: 1160000004 cycles: 1337793060 heartbeat IPC: 1.34645 cumulative IPC: 0.570004 (Simulation time: 4 hr 19 min 8 sec) 
Heartbeat CPU 0 instructions: 1170000002 cycles: 1345573177 heartbeat IPC: 1.28533 cumulative IPC: 0.574778 (Simulation time: 4 hr 20 min 25 sec) 
Heartbeat CPU 0 instructions: 1180000002 cycles: 1353415348 heartbeat IPC: 1.27516 cumulative IPC: 0.579459 (Simulation time: 4 hr 21 min 44 sec) 
Heartbeat CPU 0 instructions: 1190000000 cycles: 1360644062 heartbeat IPC: 1.38337 cumulative IPC: 0.584381 (Simulation time: 4 hr 22 min 59 sec) 
Heartbeat CPU 0 instructions: 1200000004 cycles: 1369116879 heartbeat IPC: 1.18025 cumulative IPC: 0.588626 (Simulation time: 4 hr 24 min 21 sec) 
Heartbeat CPU 0 instructions: 1210000001 cycles: 1376167337 heartbeat IPC: 1.41835 cumulative IPC: 0.593516 (Simulation time: 4 hr 25 min 34 sec) 
Heartbeat CPU 0 instructions: 1220000002 cycles: 1384780593 heartbeat IPC: 1.161 cumulative IPC: 0.597573 (Simulation time: 4 hr 26 min 58 sec) 
Heartbeat CPU 0 instructions: 1230000004 cycles: 1391732071 heartbeat IPC: 1.43854 cumulative IPC: 0.602397 (Simulation time: 4 hr 28 min 11 sec) 
Heartbeat CPU 0 instructions: 1240000002 cycles: 1400264376 heartbeat IPC: 1.17202 cumulative IPC: 0.60638 (Simulation time: 4 hr 29 min 32 sec) 
Heartbeat CPU 0 instructions: 1250000002 cycles: 1407209812 heartbeat IPC: 1.43979 cumulative IPC: 0.611096 (Simulation time: 4 hr 30 min 45 sec) 
Heartbeat CPU 0 instructions: 1260000000 cycles: 1415983804 heartbeat IPC: 1.13973 cumulative IPC: 0.614848 (Simulation time: 4 hr 32 min 9 sec) 
Heartbeat CPU 0 instructions: 1270000002 cycles: 1422984542 heartbeat IPC: 1.42842 cumulative IPC: 0.61943 (Simulation time: 4 hr 33 min 22 sec) 
Heartbeat CPU 0 instructions: 1280000001 cycles: 1431064651 heartbeat IPC: 1.23761 cumulative IPC: 0.623422 (Simulation time: 4 hr 34 min 41 sec) 
Heartbeat CPU 0 instructions: 1290000002 cycles: 1438540913 heartbeat IPC: 1.33757 cumulative IPC: 0.627664 (Simulation time: 4 hr 35 min 56 sec) 
Heartbeat CPU 0 instructions: 1300000000 cycles: 1446176516 heartbeat IPC: 1.30965 cumulative IPC: 0.631777 (Simulation time: 4 hr 37 min 13 sec) 
Heartbeat CPU 0 instructions: 1310000000 cycles: 1454132759 heartbeat IPC: 1.25687 cumulative IPC: 0.63568 (Simulation time: 4 hr 38 min 31 sec) 
Heartbeat CPU 0 instructions: 1320000003 cycles: 1461262787 heartbeat IPC: 1.40252 cumulative IPC: 0.639947 (Simulation time: 4 hr 39 min 44 sec) 
Heartbeat CPU 0 instructions: 1330000000 cycles: 1469764783 heartbeat IPC: 1.17619 cumulative IPC: 0.643482 (Simulation time: 4 hr 41 min 6 sec) 
Heartbeat CPU 0 instructions: 1340000004 cycles: 1476778250 heartbeat IPC: 1.42583 cumulative IPC: 0.647713 (Simulation time: 4 hr 42 min 19 sec) 
Heartbeat CPU 0 instructions: 1350000002 cycles: 1485573734 heartbeat IPC: 1.13695 cumulative IPC: 0.651008 (Simulation time: 4 hr 43 min 42 sec) 
Heartbeat CPU 0 instructions: 1360000004 cycles: 1492500467 heartbeat IPC: 1.44368 cumulative IPC: 0.655191 (Simulation time: 4 hr 44 min 54 sec) 
Heartbeat CPU 0 instructions: 1370000000 cycles: 1501216882 heartbeat IPC: 1.14726 cumulative IPC: 0.658437 (Simulation time: 4 hr 46 min 17 sec) 
Heartbeat CPU 0 instructions: 1380000000 cycles: 1508066278 heartbeat IPC: 1.45998 cumulative IPC: 0.662571 (Simulation time: 4 hr 47 min 29 sec) 
Heartbeat CPU 0 instructions: 1390000000 cycles: 1516808545 heartbeat IPC: 1.14387 cumulative IPC: 0.665718 (Simulation time: 4 hr 48 min 52 sec) 
Heartbeat CPU 0 instructions: 1400000000 cycles: 1523728329 heartbeat IPC: 1.44513 cumulative IPC: 0.669732 (Simulation time: 4 hr 50 min 4 sec) 
Heartbeat CPU 0 instructions: 1410000000 cycles: 1531750794 heartbeat IPC: 1.2465 cumulative IPC: 0.673155 (Simulation time: 4 hr 51 min 23 sec) 
Heartbeat CPU 0 instructions: 1420000000 cycles: 1539436431 heartbeat IPC: 1.30113 cumulative IPC: 0.676705 (Simulation time: 4 hr 52 min 40 sec) 
Heartbeat CPU 0 instructions: 1430000002 cycles: 1546878093 heartbeat IPC: 1.34379 cumulative IPC: 0.680336 (Simulation time: 4 hr 53 min 55 sec) 
Heartbeat CPU 0 instructions: 1440000002 cycles: 1554846147 heartbeat IPC: 1.25501 cumulative IPC: 0.683666 (Simulation time: 4 hr 55 min 13 sec) 
Heartbeat CPU 0 instructions: 1450000004 cycles: 1561944009 heartbeat IPC: 1.40888 cumulative IPC: 0.687391 (Simulation time: 4 hr 56 min 27 sec) 
Heartbeat CPU 0 instructions: 1460000003 cycles: 1570524467 heartbeat IPC: 1.16544 cumulative IPC: 0.690341 (Simulation time: 4 hr 57 min 49 sec) 
Heartbeat CPU 0 instructions: 1470000004 cycles: 1577440390 heartbeat IPC: 1.44594 cumulative IPC: 0.69408 (Simulation time: 4 hr 59 min 1 sec) 
Heartbeat CPU 0 instructions: 1480000003 cycles: 1586053231 heartbeat IPC: 1.16106 cumulative IPC: 0.69694 (Simulation time: 5 hr 0 min 23 sec) 
Heartbeat CPU 0 instructions: 1490000002 cycles: 1593093167 heartbeat IPC: 1.42047 cumulative IPC: 0.700544 (Simulation time: 5 hr 1 min 36 sec) 
Heartbeat CPU 0 instructions: 1500000000 cycles: 1601691685 heartbeat IPC: 1.16299 cumulative IPC: 0.703341 (Simulation time: 5 hr 2 min 58 sec) 
Heartbeat CPU 0 instructions: 1510000001 cycles: 1608493149 heartbeat IPC: 1.47027 cumulative IPC: 0.706993 (Simulation time: 5 hr 4 min 10 sec) 
Heartbeat CPU 0 instructions: 1520000001 cycles: 1617077169 heartbeat IPC: 1.16496 cumulative IPC: 0.709728 (Simulation time: 5 hr 5 min 32 sec) 
Heartbeat CPU 0 instructions: 1530000001 cycles: 1624233886 heartbeat IPC: 1.39729 cumulative IPC: 0.713135 (Simulation time: 5 hr 6 min 46 sec) 
Heartbeat CPU 0 instructions: 1540000003 cycles: 1632079679 heartbeat IPC: 1.27457 cumulative IPC: 0.716168 (Simulation time: 5 hr 8 min 5 sec) 
Heartbeat CPU 0 instructions: 1550000003 cycles: 1639710407 heartbeat IPC: 1.31049 cumulative IPC: 0.719275 (Simulation time: 5 hr 9 min 22 sec) 
Heartbeat CPU 0 instructions: 1560000002 cycles: 1647132541 heartbeat IPC: 1.34732 cumulative IPC: 0.722452 (Simulation time: 5 hr 10 min 37 sec) 
Heartbeat CPU 0 instructions: 1570000003 cycles: 1655597630 heartbeat IPC: 1.18132 cumulative IPC: 0.725084 (Simulation time: 5 hr 11 min 59 sec) 
Heartbeat CPU 0 instructions: 1580000002 cycles: 1662581594 heartbeat IPC: 1.43185 cumulative IPC: 0.728413 (Simulation time: 5 hr 13 min 12 sec) 
Heartbeat CPU 0 instructions: 1590000000 cycles: 1671160014 heartbeat IPC: 1.16572 cumulative IPC: 0.730929 (Simulation time: 5 hr 14 min 35 sec) 
Heartbeat CPU 0 instructions: 1600000002 cycles: 1678187654 heartbeat IPC: 1.42295 cumulative IPC: 0.734175 (Simulation time: 5 hr 15 min 48 sec) 
Heartbeat CPU 0 instructions: 1610000001 cycles: 1686855168 heartbeat IPC: 1.15373 cumulative IPC: 0.736588 (Simulation time: 5 hr 17 min 10 sec) 
Heartbeat CPU 0 instructions: 1620000001 cycles: 1693845968 heartbeat IPC: 1.43045 cumulative IPC: 0.739792 (Simulation time: 5 hr 18 min 23 sec) 
Heartbeat CPU 0 instructions: 1630000001 cycles: 1702527709 heartbeat IPC: 1.15184 cumulative IPC: 0.742141 (Simulation time: 5 hr 19 min 47 sec) 
Heartbeat CPU 0 instructions: 1640000000 cycles: 1709467120 heartbeat IPC: 1.44104 cumulative IPC: 0.745312 (Simulation time: 5 hr 20 min 59 sec) 
Heartbeat CPU 0 instructions: 1650000004 cycles: 1717691034 heartbeat IPC: 1.21597 cumulative IPC: 0.747829 (Simulation time: 5 hr 22 min 19 sec) 
Heartbeat CPU 0 instructions: 1660000003 cycles: 1725140951 heartbeat IPC: 1.3423 cumulative IPC: 0.750695 (Simulation time: 5 hr 23 min 35 sec) 
Heartbeat CPU 0 instructions: 1670000000 cycles: 1733000402 heartbeat IPC: 1.27235 cumulative IPC: 0.753335 (Simulation time: 5 hr 24 min 53 sec) 
Heartbeat CPU 0 instructions: 1680000003 cycles: 1740814153 heartbeat IPC: 1.2798 cumulative IPC: 0.75597 (Simulation time: 5 hr 26 min 10 sec) 
Heartbeat CPU 0 instructions: 1690000001 cycles: 1748051008 heartbeat IPC: 1.38182 cumulative IPC: 0.758859 (Simulation time: 5 hr 27 min 24 sec) 
Heartbeat CPU 0 instructions: 1700000000 cycles: 1756488761 heartbeat IPC: 1.18515 cumulative IPC: 0.76114 (Simulation time: 5 hr 28 min 46 sec) 
Heartbeat CPU 0 instructions: 1710000000 cycles: 1763620920 heartbeat IPC: 1.4021 cumulative IPC: 0.764027 (Simulation time: 5 hr 29 min 59 sec) 
Heartbeat CPU 0 instructions: 1720000003 cycles: 1772342287 heartbeat IPC: 1.14661 cumulative IPC: 0.766122 (Simulation time: 5 hr 31 min 22 sec) 
Heartbeat CPU 0 instructions: 1730000000 cycles: 1779262080 heartbeat IPC: 1.44513 cumulative IPC: 0.76906 (Simulation time: 5 hr 32 min 34 sec) 
Heartbeat CPU 0 instructions: 1740000004 cycles: 1787997603 heartbeat IPC: 1.14475 cumulative IPC: 0.771101 (Simulation time: 5 hr 33 min 57 sec) 
Heartbeat CPU 0 instructions: 1750000003 cycles: 1794967092 heartbeat IPC: 1.43483 cumulative IPC: 0.773965 (Simulation time: 5 hr 35 min 9 sec) 
Heartbeat CPU 0 instructions: 1760000004 cycles: 1803723180 heartbeat IPC: 1.14206 cumulative IPC: 0.77595 (Simulation time: 5 hr 36 min 33 sec) 
Heartbeat CPU 0 instructions: 1770000003 cycles: 1810628031 heartbeat IPC: 1.44826 cumulative IPC: 0.778796 (Simulation time: 5 hr 37 min 45 sec) 
Heartbeat CPU 0 instructions: 1780000003 cycles: 1818888555 heartbeat IPC: 1.21058 cumulative IPC: 0.780973 (Simulation time: 5 hr 39 min 5 sec) 
Heartbeat CPU 0 instructions: 1790000004 cycles: 1826479596 heartbeat IPC: 1.31734 cumulative IPC: 0.783445 (Simulation time: 5 hr 40 min 22 sec) 
Heartbeat CPU 0 instructions: 1800000003 cycles: 1834232261 heartbeat IPC: 1.28988 cumulative IPC: 0.785819 (Simulation time: 5 hr 41 min 40 sec) 
Heartbeat CPU 0 instructions: 1810000003 cycles: 1842163968 heartbeat IPC: 1.26076 cumulative IPC: 0.788085 (Simulation time: 5 hr 42 min 59 sec) 
Heartbeat CPU 0 instructions: 1820000004 cycles: 1849313528 heartbeat IPC: 1.39869 cumulative IPC: 0.7907 (Simulation time: 5 hr 44 min 12 sec) 
Heartbeat CPU 0 instructions: 1830000003 cycles: 1857929852 heartbeat IPC: 1.16059 cumulative IPC: 0.792599 (Simulation time: 5 hr 45 min 35 sec) 
Heartbeat CPU 0 instructions: 1840000000 cycles: 1864941158 heartbeat IPC: 1.42627 cumulative IPC: 0.795236 (Simulation time: 5 hr 46 min 49 sec) 
Heartbeat CPU 0 instructions: 1850000001 cycles: 1873707446 heartbeat IPC: 1.14073 cumulative IPC: 0.797024 (Simulation time: 5 hr 48 min 13 sec) 
Heartbeat CPU 0 instructions: 1860000003 cycles: 1880734455 heartbeat IPC: 1.42308 cumulative IPC: 0.799611 (Simulation time: 5 hr 49 min 27 sec) 
Heartbeat CPU 0 instructions: 1870000001 cycles: 1889352707 heartbeat IPC: 1.16033 cumulative IPC: 0.801429 (Simulation time: 5 hr 50 min 50 sec) 
Heartbeat CPU 0 instructions: 1880000003 cycles: 1896231587 heartbeat IPC: 1.45373 cumulative IPC: 0.804044 (Simulation time: 5 hr 52 min 2 sec) 
Heartbeat CPU 0 instructions: 1890000002 cycles: 1904875691 heartbeat IPC: 1.15686 cumulative IPC: 0.805812 (Simulation time: 5 hr 53 min 26 sec) 
Heartbeat CPU 0 instructions: 1900000004 cycles: 1911769823 heartbeat IPC: 1.45051 cumulative IPC: 0.808378 (Simulation time: 5 hr 54 min 38 sec) 
Heartbeat CPU 0 instructions: 1910000003 cycles: 1919813115 heartbeat IPC: 1.24327 cumulative IPC: 0.810388 (Simulation time: 5 hr 55 min 57 sec) 
Heartbeat CPU 0 instructions: 1920000003 cycles: 1927468280 heartbeat IPC: 1.30631 cumulative IPC: 0.812561 (Simulation time: 5 hr 57 min 14 sec) 
Heartbeat CPU 0 instructions: 1930000004 cycles: 1934950323 heartbeat IPC: 1.33653 cumulative IPC: 0.814795 (Simulation time: 5 hr 58 min 30 sec) 
Heartbeat CPU 0 instructions: 1940000001 cycles: 1943162033 heartbeat IPC: 1.21777 cumulative IPC: 0.816671 (Simulation time: 5 hr 59 min 50 sec) 
Heartbeat CPU 0 instructions: 1950000004 cycles: 1950066577 heartbeat IPC: 1.44832 cumulative IPC: 0.819135 (Simulation time: 6 hr 1 min 2 sec) 
Heartbeat CPU 0 instructions: 1960000001 cycles: 1958638746 heartbeat IPC: 1.16657 cumulative IPC: 0.820809 (Simulation time: 6 hr 2 min 25 sec) 
Heartbeat CPU 0 instructions: 1970000003 cycles: 1965594577 heartbeat IPC: 1.43764 cumulative IPC: 0.823212 (Simulation time: 6 hr 3 min 38 sec) 
Heartbeat CPU 0 instructions: 1980000002 cycles: 1974249512 heartbeat IPC: 1.15541 cumulative IPC: 0.824814 (Simulation time: 6 hr 5 min 1 sec) 
Heartbeat CPU 0 instructions: 1990000001 cycles: 1981198377 heartbeat IPC: 1.43908 cumulative IPC: 0.827184 (Simulation time: 6 hr 6 min 13 sec) 
*** Reached end of trace: traces/654.roms_s-293B.champsimtrace.xz
Heartbeat CPU 0 instructions: 2000000000 cycles: 1989955037 heartbeat IPC: 1.14199 cumulative IPC: 0.828707 (Simulation time: 6 hr 7 min 37 sec) 
Finished CPU 0 instructions: 1500000004 cycles: 1810048411 cumulative IPC: 0.828707 (Simulation time: 6 hr 7 min 37 sec) 

ChampSim completed all CPUs

Region of Interest Statistics

CPU 0 cumulative IPC: 0.828707 instructions: 1500000004 cycles: 1810048411
cpu0_DTLB TOTAL     ACCESS:  350083092  HIT:  349326863  MISS:     756229
cpu0_DTLB LOAD      ACCESS:  278567104  HIT:  278038990  MISS:     528114
cpu0_DTLB RFO       ACCESS:   71515988  HIT:   71287873  MISS:     228115
cpu0_DTLB PREFETCH  ACCESS:          0  HIT:          0  MISS:          0
cpu0_DTLB WRITEBACK ACCESS:          0  HIT:          0  MISS:          0
cpu0_DTLB TRANSLATION ACCESS:          0  HIT:          0  MISS:          0
cpu0_DTLB PREFETCH  REQUESTED:          0  ISSUED:          0  USEFUL:          0  USELESS:          0
cpu0_DTLB AVERAGE MISS LATENCY: 186.82 cycles
cpu0_ITLB TOTAL     ACCESS:    1967295  HIT:    1967293  MISS:          2
cpu0_ITLB LOAD      ACCESS:    1967295  HIT:    1967293  MISS:          2
cpu0_ITLB RFO       ACCESS:          0  HIT:          0  MISS:          0
cpu0_ITLB PREFETCH  ACCESS:          0  HIT:          0  MISS:          0
cpu0_ITLB WRITEBACK ACCESS:          0  HIT:          0  MISS:          0
cpu0_ITLB TRANSLATION ACCESS:          0  HIT:          0  MISS:          0
cpu0_ITLB PREFETCH  REQUESTED:          0  ISSUED:          0  USEFUL:          0  USELESS:          0
cpu0_ITLB AVERAGE MISS LATENCY: 217 cycles
cpu0_L1I TOTAL     ACCESS:     195574  HIT:     195385  MISS:        189
cpu0_L1I LOAD      ACCESS:     195574  HIT:     195385  MISS:        189
cpu0_L1I RFO       ACCESS:          0  HIT:          0  MISS:          0
cpu0_L1I PREFETCH  ACCESS:          0  HIT:          0  MISS:          0
cpu0_L1I WRITEBACK ACCESS:          0  HIT:          0  MISS:          0
cpu0_L1I TRANSLATION ACCESS:          0  HIT:          0  MISS:          0
cpu0_L1I PREFETCH  REQUESTED:          0  ISSUED:          0  USEFUL:          0  USELESS:          0
cpu0_L1I AVERAGE MISS LATENCY: 431.709 cycles
cpu0_STLB TOTAL     ACCESS:     756231  HIT:     201370  MISS:     554861
cpu0_STLB LOAD      ACCESS:     528116  HIT:      93261  MISS:     434855
cpu0_STLB RFO       ACCESS:     228115  HIT:     108109  MISS:     120006
cpu0_STLB PREFETCH  ACCESS:          0  HIT:          0  MISS:          0
cpu0_STLB WRITEBACK ACCESS:          0  HIT:          0  MISS:          0
cpu0_STLB TRANSLATION ACCESS:          0  HIT:          0  MISS:          0
cpu0_STLB PREFETCH  REQUESTED:          0  ISSUED:          0  USEFUL:          0  USELESS:          0
cpu0_STLB AVERAGE MISS LATENCY: 242.321 cycles
cpu0_L1D TOTAL     ACCESS:  333131180  HIT:  307274828  MISS:   25856352
cpu0_L1D LOAD      ACCESS:  240430692  HIT:  222254957  MISS:   18175735
cpu0_L1D RFO       ACCESS:   92180094  HIT:   84554990  MISS:    7625104
cpu0_L1D PREFETCH  ACCESS:          0  HIT:          0  MISS:          0
cpu0_L1D WRITEBACK ACCESS:          0  HIT:          0  MISS:          0
cpu0_L1D TRANSLATION ACCESS:     520394  HIT:     464881  MISS:      55513
cpu0_L1D PREFETCH  REQUESTED:          0  ISSUED:          0  USEFUL:          0  USELESS:          0
cpu0_L1D AVERAGE MISS LATENCY: 320.935 cycles
cpu0_L2C TOTAL     ACCESS:   33540211  HIT:    9514945  MISS:   24025266
cpu0_L2C LOAD      ACCESS:   18175870  HIT:    1833800  MISS:   16342070
cpu0_L2C RFO       ACCESS:    7625104  HIT:      20312  MISS:    7604792
cpu0_L2C PREFETCH  ACCESS:          0  HIT:          0  MISS:          0
cpu0_L2C WRITEBACK ACCESS:    7683724  HIT:    7652356  MISS:      31368
cpu0_L2C TRANSLATION ACCESS:      55513  HIT:       8477  MISS:      47036
cpu0_L2C PREFETCH  REQUESTED:          0  ISSUED:          0  USEFUL:          0  USELESS:          0
cpu0_L2C AVERAGE MISS LATENCY: 333.517 cycles
LLC TOTAL     ACCESS:   31640936  HIT:   11420503  MISS:   20220433
LLC LOAD      ACCESS:   16342070  HIT:    2604592  MISS:   13737478
LLC RFO       ACCESS:    7604792  HIT:    1148661  MISS:    6456131
LLC PREFETCH  ACCESS:          0  HIT:          0  MISS:          0
LLC WRITEBACK ACCESS:    7647038  HIT:    7643946  MISS:       3092
LLC TRANSLATION ACCESS:      47036  HIT:      23304  MISS:      23732
LLC PREFETCH  REQUESTED:          0  ISSUED:          0  USEFUL:          0  USELESS:          0
LLC AVERAGE MISS LATENCY: 371.353 cycles
~~~~~~~~~~Reuse Distance Profiler output~~~~~~~~~~
0	38632992	18394432
1	34380512	18788592
2	25772480	17363776
3	22401520	13211440
4	17641360	14942960
5	16786432	13958208
6	19661296	16325328
7	19357248	15873184
8	14723248	11909616
9	13005120	10650208
10	10524624	8686896
11	10904480	10503776
12	12873216	12362704
13	11256976	10891424
14	10490800	9850112
15	11707280	10757488
16	12138176	11650272
17	9548400	8626896
18	10881920	9881968
19	14750496	14318928
20	21370528	20819952
21	16023808	15283072
22	7090224	6399696
23	4638256	3674944
24	4448992	3859504
25	2635552	2280064
26	2501840	2227584
27	1383792	1143568
28	1399904	1078288
29	1548368	1085792
30	1947968	1482000
31	1345760	947904
32	879920	674432
33	1026288	618880
34	584560	448832
35	972720	705488
36	1485776	1271600
37	1198896	972240
38	1360880	1114864
39	1338176	1151520
40	1094560	947136
41	944576	780336
42	752976	525408
43	1213968	994432
44	1011200	865056
45	980448	815040
46	825824	605776
47	639424	465936
48	812768	600496
49	1181584	897904
50	1034080	354576
51	912576	378912
52	1244576	650192
53	1417344	646240
54	1662688	945808
55	2068496	1025680
56	1572848	580176
57	1819888	905488
58	1677456	772528
59	2053424	1213056
60	3672208	1946736
61	2033008	1028128
62	2035712	1142800
63	1531760	817920
64	2103744	1659760
66	2059584	1875616
68	1329856	912240
70	1535456	704912
72	1364512	320160
74	1892288	219104
76	1514224	247792
78	563920	79280
80	515696	77936
82	255712	61824
84	144016	67600
86	216000	80848
88	221648	115280
90	166624	107024
92	172048	65856
94	82528	36736
96	47808	42848
98	34240	31584
100	21008	20352
102	17712	17520
104	16544	16480
106	9504	9504
108	13920	13904
110	9472	9472
112	7104	7104
114	9280	9264
116	9728	9728
118	4336	4336
120	416	368
122	336	304
124	176	176
126	16	16
128	80	80
132	144	144
136	240	240
140	112	112
144	0	0
148	0	0
152	16	0
156	0	0
160	32	0
164	64	0
168	16	0
172	16	16
176	0	0
180	64	64
184	0	0
188	0	0
192	48	48
196	128	128
200	352	352
204	112	112
208	128	128
212	16	16
216	0	0
220	96	96
224	128	128
228	32	32
232	32	32
236	96	96
240	192	96
244	208	48
248	160	128
252	112	112
256	48	48
264	64	64
272	208	192
280	16	16
288	96	96
296	48	48
304	336	336
312	992	992
320	1536	1536
328	2096	2096
336	1904	1904
344	1744	1744
352	1344	1344
360	880	880
368	944	944
376	560	560
384	336	336
392	288	288
400	352	352
408	240	240
416	240	240
424	272	272
432	256	256
440	224	224
448	160	160
456	304	304
464	256	256
472	512	512
480	944	944
488	2400	2400
496	6160	6160
504	13488	13488
512	59856	59856
528	138528	138528
544	218880	218880
560	290304	290304
576	149088	149088
592	62464	62464
608	77888	77872
624	109632	109632
640	124288	124288
656	151200	151200
672	107376	107376
688	25728	25728
704	2240	2240
720	544	544
736	544	544
752	624	624
768	352	352
784	992	992
800	784	784
816	848	848
832	560	560
848	736	736
864	480	480
880	928	768
896	592	592
912	592	592
928	864	736
944	560	544
960	784	784
976	736	736
992	768	768
1008	736	736
1024	1856	1840
1056	1600	1584
1088	1840	1696
1120	1776	1728
1152	1760	1760
1184	1552	1536
1216	1312	1296
1248	1568	1552
1280	1648	1648
1312	1696	1696
1344	1392	1392
1376	1520	1520
1408	1504	1504
1440	1408	1408
1472	1776	1776
1504	1520	1520
1536	1632	1632
1568	1408	1408
1600	1712	1712
1632	1888	1888
1664	4016	4016
1696	11280	11280
1728	28144	28144
1760	58336	58336
1792	112144	112144
1824	163648	163648
1856	154000	154000
1888	131200	131200
1920	78880	78880
1952	23200	23200
1984	7328	7328
2016	1952	1952
2048	2288	2288
2112	2320	2320
2176	17696	17696
2240	32672	32672
2304	48976	48976
2368	5504	5504
2432	976	976
2496	928	928
2560	1040	1040
2624	960	960
2688	1088	1088
2752	1120	1104
2816	992	992
2880	1344	1344
2944	1200	1200
3008	1088	1088
3072	1120	1120
3136	1088	1088
3200	1152	1152
3264	1072	1072
3328	880	880
3392	1216	1216
3456	19808	19808
3520	38432	38432
3584	41440	41440
3648	3952	3952
3712	1648	1648
3776	1328	1328
3840	1248	1248
3904	752	752
3968	896	896
4032	848	848
4096	1296	1296
4224	1376	1376
4352	1360	1360
4480	1616	1616
4608	1328	1328
4736	1584	1584
4864	1600	1600
4992	1648	1648
5120	1344	1344
5248	1376	1376
5376	1616	1616
5504	1632	1632
5632	1696	1696
5760	1344	1344
5888	1680	1680
6016	2080	2080
6144	5712	5712
6272	26720	26720
6400	53472	53472
6528	86448	86448
6656	127120	127120
6784	180240	180240
6912	262656	262656
7040	348192	348192
7168	1519808	1519808
7296	618496	618496
7424	119632	119632
7552	54736	54736
7680	25456	25456
7808	12992	12992
7936	8720	8720
8064	3648	3648
8192	2000	2000
8448	1184	1184
8704	1104	1104
8960	976	976
9216	1136	1136
9472	1200	1200
9728	1184	1184
9984	1168	1168
10240	928	928
10496	799072	799072
10752	1535040	1535040
11008	241200	241200
11264	608	608
11520	784	784
11776	464	464
12032	64	64
12288	80	80
12544	80	80
12800	144	144
13056	80	80
13312	64	64
13568	112	112
13824	96	96
14080	32	32
14336	160	160
14592	144	144
14848	240	208
15104	208	176
15360	400	304
15616	352	256
15872	560	464
16128	816	688
16384	3184	2800
16896	4768	4304
17408	4944	4624
17920	4480	4160
18432	3136	2752
18944	1904	1712
19456	1328	1024
19968	1472	1040
20480	1104	896
20992	1200	912
21504	1120	912
22016	1344	960
22528	1088	928
23040	1312	976
23552	1120	768
24064	1280	976
24576	1200	1008
25088	976	624
25600	1232	976
26112	1040	704
26624	1184	896
27136	1328	992
27648	1152	896
28160	1168	928
28672	1408	1024
29184	1328	992
29696	1232	912
30208	1248	1024
30720	5808	5536
31232	1296	1040
31744	1008	720
32256	3648	3376
32768	37520	37040
33792	3824	3152
34816	1920	1328
35840	1984	1344
36864	1968	1632
37888	2224	1776
38912	1792	1264
39936	1904	1424
40960	2304	1728
41984	2032	1392
43008	2272	1808
44032	2624	1984
45056	2288	1728
46080	2272	1760
47104	2352	1728
48128	2592	1968
49152	2448	1664
50176	2272	1792
51200	2416	1648
52224	2304	1776
53248	2560	1888
54272	2336	1872
55296	2544	1808
56320	2224	1808
57344	2400	1680
58368	2160	1632
59392	2320	1776
60416	2288	1824
61440	2368	1840
62464	2192	1552
63488	2224	1776
64512	2080	1552
65536	4480	3296
67584	4112	2800
69632	4224	3008
71680	5120	3968
73728	5184	4048
75776	5104	3936
77824	4896	3568
79872	5248	3712
81920	5488	4096
83968	5616	4256
86016	5184	3888
88064	4912	3696
90112	4512	3200
92160	5216	4016
94208	4640	3408
96256	5088	3808
98304	5392	4144
100352	5120	3648
102400	4624	3184
104448	4640	3296
106496	4720	3520
108544	4976	3760
110592	4448	3248
112640	4960	3584
114688	5488	3696
116736	5248	4096
118784	4944	3536
120832	5344	4160
122880	4960	3808
124928	4848	3568
126976	4928	3536
129024	4592	3408
131072	9824	7232
135168	9216	6352
139264	9536	7040
143360	9376	7024
147456	10672	7968
151552	10416	7888
155648	9920	7472
159744	10160	7520
163840	9808	7328
167936	9600	7152
172032	9216	6448
176128	10080	7584
180224	10336	7264
184320	10352	7648
188416	10576	7888
192512	9680	6992
196608	10848	8160
200704	10192	7520
204800	9552	7104
208896	9200	6576
212992	11888	8976
217088	10000	7552
221184	10160	7664
225280	9824	7168
229376	9200	6752
233472	10064	7536
237568	10224	7568
241664	9040	6400
245760	10112	7328
249856	10400	7904
253952	10544	7936
258048	10576	8080
262144	20016	14784
270336	119984	114704
278528	116448	110752
286720	901840	895792
294912	282112	271728
303104	116336	103152
311296	49632	35744
319488	184736	170944
327680	83552	69968
335872	277440	263648
344064	191616	177664
352256	67856	54224
360448	75168	62160
368640	65152	50512
376832	45728	32880
385024	39552	25280
393216	33328	18864
401408	32032	18448
409600	32304	18448
417792	32864	18736
425984	64960	51168
434176	781600	767232
442368	31040	17408
450560	33872	19648
458752	32096	17888
466944	33376	19504
475136	33392	19024
483328	32496	18432
491520	31584	18112
499712	32752	18976
507904	32240	18832
516096	32096	18576
524288	67600	37216
540672	111648	80400
557056	237296	205584
573440	625552	595024
589824	474592	444256
606208	361520	328800
622592	323088	293040
638976	329152	297760
655360	348944	318784
671744	308544	277920
688128	212128	180816
704512	70432	39712
720896	69760	38816
737280	69072	39600
753664	68208	39808
770048	69552	38512
786432	69808	39648
802816	68048	37968
819200	71200	40336
835584	72000	39648
851968	71184	39168
868352	71792	39408
884736	68400	39008
901120	71392	40112
917504	71424	39360
933888	70272	39872
950272	72016	39504
966656	70880	40096
983040	68000	37344
999424	70048	38880
1015808	67568	38000
1032192	69248	38672
1048576	141472	77808
1081344	140352	78416
1114112	139328	77520
1146880	136336	75584
1179648	138816	75792
1212416	136464	74672
1245184	135808	76112
1277952	136448	76496
1310720	158336	76672
1343488	87328	71248
1376256	58800	58800
1409024	3648	3648
1441792	176	176
1474560	384	384
1507328	64	64
1540096	48	48
1572864	32	32
1605632	112	112
1638400	80	80
1671168	397568	320
1703936	1420944	736
1736704	240	240
1769472	464	432
1802240	160	112
1835008	32	32
1867776	0	0
1900544	220720	192
1933312	5296	96
1966080	144	144
1998848	112	112
2031616	16	16
2064384	272	272
2097152	160	160
2162688	160	96
2228224	176	176
2293760	352	352
2359296	512	512
2424832	208	208
2490368	144	144
2555904	128	80
2621440	304	272
2686976	224	224
2752512	208	208
2818048	80	80
2883584	224	224
2949120	480	480
3014656	208	128
3080192	224	224
3145728	64	64
3211264	256	256
3276800	208	208
3342336	112	112
3407872	192	112
3473408	576	576
3538944	272	272
3604480	144	144
3670016	160	160
3735552	176	176
3801088	304	256
3866624	80	80
3932160	144	144
3997696	96	96
4063232	464	464
4128768	208	208
4194304	368	288
4325376	512	512
4456448	224	224
4587520	576	512
4718592	512	512
4849664	336	336
4980736	416	368
5111808	272	272
5242880	768	768
5373952	544	496
5505024	864	864
5636096	160	160
5767168	480	416
5898240	304	304
6029312	544	544
6160384	656	560
6291456	128	128
6422528	560	560
6553600	464	432
6684672	704	640
6815744	320	320
6946816	368	352
7077888	512	480
7208960	752	752
7340032	336	336
7471104	448	368
7602176	448	448
7733248	416	416
7864320	864	784
7995392	352	352
8126464	704	704
8257536	432	352
8388608	816	816
8650752	848	800
8912896	1184	1104
9175040	864	864
9437184	1136	1072
9699328	1312	1248
9961472	736	736
10223616	1056	992
10485760	944	896
10747904	1008	1008
11010048	1264	1200
11272192	992	992
11534336	1232	1184
11796480	608	544
12058624	1552	1552
12320768	592	528
12582912	1264	1184
12845056	1264	1264
13107200	1296	1232
13369344	1040	976
13631488	1216	1216
13893632	1312	1248
14155776	1056	976
14417920	1072	1072
14680064	992	944
14942208	1120	1072
15204352	944	928
15466496	1168	1088
15728640	1168	1104
15990784	1104	1008
16252928	1280	1280
16515072	1088	1056
16777216	2544	2448
17301504	2320	2224
17825792	2432	2384
18350080	2512	2400
18874368	2288	2224
19398656	2624	2576
19922944	2528	2432
20447232	2720	2272
20971520	2592	2464
21495808	2304	2240
22020096	2784	2752
22544384	2416	2240
23068672	2608	2576
23592960	2528	2528
24117248	2224	2224
24641536	1760	1728
25165824	3488	1360
25690112	10464	1456
26214400	11104	1568
26738688	6416	1376
27262976	1920	1584
27787264	1168	1152
28311552	1536	1472
28835840	1808	1760
29360128	1792	1568
29884416	1504	1504
30408704	1536	1328
30932992	1504	1488
31457280	1344	1328
31981568	1824	1504
32505856	1712	1536
33030144	1568	1504
33554432	3136	3024
34603008	2848	2416
35651584	3600	3440
36700160	3200	3024
37748736	2832	2752
38797312	3536	3232
39845888	2640	2592
40894464	3360	3264
41943040	3248	3024
42991616	2400	2336
44040192	4224	3872
45088768	2816	2768
46137344	3216	3136
47185920	3312	2720
48234496	2976	2976
49283072	2848	2688
50331648	2944	2816
51380224	3168	3056
52428800	3536	3392
53477376	3072	2976
54525952	3280	3216
55574528	2512	2448
56623104	3248	3104
57671680	2464	2432
58720256	3232	3072
59768832	3360	3296
60817408	3040	3024
61865984	3024	2864
62914560	2528	2432
63963136	3328	2704
65011712	2576	2576
66060288	2688	2624
67108864	5520	5264
69206016	4832	4736
71303168	5680	5360
73400320	5328	5056
75497472	5856	5472
77594624	5104	4832
79691776	5360	5072
81788928	5248	4928
83886080	5856	5472
85983232	5632	5536
88080384	5680	5360
90177536	5360	5088
92274688	4832	4512
94371840	5328	5024
96468992	5536	5152
98566144	5008	4704
100663296	5856	5584
102760448	4992	4800
104857600	5104	4832
106954752	4992	4624
109051904	5136	4752
111149056	5264	4928
113246208	4928	4592
115343360	5744	5392
117440512	5968	5696
119537664	5744	5424
121634816	4608	4496
123731968	5456	5056
125829120	5104	4800
127926272	5504	5168
130023424	4656	4352
132120576	5712	5216
134217728	11488	10128
138412032	11584	10624
142606336	11504	10288
146800640	10912	10160
150994944	11248	10592
155189248	10384	9616
159383552	9712	9664
163577856	10000	10000
167772160	10688	10624
171966464	9728	9728
176160768	9584	9584
180355072	10688	10656
184549376	9840	9840
188743680	9760	9760
192937984	18128	18048
197132288	28848	28848
201326592	28784	28784
205520896	25488	25488
209715200	30160	30160
213909504	23840	23840
218103808	28528	28352
222298112	15040	14896
226492416	6464	6240
230686720	6624	6480
234881024	6448	6256
239075328	6320	6112
243269632	6880	6656
247463936	5296	5120
251658240	4272	4112
255852544	3168	3088
260046848	2096	2000
264241152	1040	880
268435456	736	448
276824064	496	320
285212672	512	224
293601280	592	320
301989888	704	432
310378496	848	352
318767104	464	240
327155712	528	272
335544320	720	304
343932928	576	272
352321536	400	256
360710144	560	256
369098752	464	176
377487360	544	240
385875968	416	144
394264576	432	192
402653184	0	0
411041792	0	0
419430400	0	0
427819008	0	0
436207616	0	0
444596224	0	0
452984832	0	0
461373440	0	0
469762048	0	0
478150656	0	0
486539264	0	0
494927872	0	0
503316480	0	0
511705088	0	0
520093696	0	0
528482304	0	0
536870912	0	0
553648128	0	0
570425344	0	0
587202560	0	0
603979776	0	0
620756992	0	0
637534208	0	0
654311424	0	0
671088640	0	0
687865856	0	0
704643072	0	0
721420288	0	0
738197504	0	0
754974720	0	0
771751936	0	0
788529152	0	0
805306368	0	0
822083584	0	0
838860800	0	0
855638016	0	0
872415232	0	0
889192448	0	0
905969664	0	0
922746880	0	0
939524096	0	0
956301312	0	0
973078528	0	0
989855744	0	0
1006632960	0	0
1023410176	0	0
1040187392	0	0
1056964608	0	0
1073741824	0	0
1107296256	0	0
1140850688	0	0
1174405120	0	0
1207959552	0	0
1241513984	0	0
1275068416	0	0
1308622848	0	0
1342177280	0	0
1375731712	0	0
1409286144	0	0
1442840576	0	0
1476395008	0	0
1509949440	0	0
1543503872	0	0
1577058304	0	0
1610612736	0	0
1644167168	0	0
1677721600	0	0
1711276032	0	0
1744830464	0	0
1778384896	0	0
1811939328	0	0
1845493760	0	0
1879048192	0	0
1912602624	0	0
1946157056	0	0
1979711488	0	0
2013265920	0	0
2046820352	0	0
2080374784	0	0
2113929216	0	0
2147483648	0	0
2214592512	0	0
2281701376	0	0
2348810240	0	0
2415919104	0	0
2483027968	0	0
2550136832	0	0
2617245696	0	0
2684354560	0	0
2751463424	0	0
2818572288	0	0
2885681152	0	0
2952790016	0	0
3019898880	0	0
3087007744	0	0
3154116608	0	0
3221225472	0	0
3288334336	0	0
3355443200	0	0
3422552064	0	0
3489660928	0	0
3556769792	0	0
3623878656	0	0
3690987520	0	0
3758096384	0	0
3825205248	0	0
3892314112	0	0
3959422976	0	0
4026531840	0	0
4093640704	0	0
4160749568	0	0
4227858432	0	0
~~~~~~~~~~Reuse Distance Profiler output end~~~~~~~~~~

DRAM Statistics
 CHANNEL 0
 RQ ROW_BUFFER_HIT:      73911  ROW_BUFFER_MISS:   20132676
 DBUS AVG_CONGESTED_CYCLE:    3.94738
 WQ ROW_BUFFER_HIT:     143736  ROW_BUFFER_MISS:    6654315  FULL:          0


CPU 0 Branch Prediction Accuracy: 99.6778% MPKI: 0.099702 Average ROB Occupancy at Mispredict: 319.962
Branch type MPKI
BRANCH_DIRECT_JUMP: 4e-06
BRANCH_INDIRECT: 0
BRANCH_CONDITIONAL: 0.0996633
BRANCH_DIRECT_CALL: 1.73333e-05
BRANCH_INDIRECT_CALL: 0
BRANCH_RETURN: 1.73333e-05

