
*** ChampSim Multicore Out-of-Order Simulator ***

Warmup Instructions: 500000000
Simulation Instructions: 1500000000
Number of CPUs: 1
Off-chip DRAM Size: 4 GiB Channels: 1 Width: 64-bit Data Rate: 3200 MT/s

VirtualMemory physical capacity: 8588881920 num_ppages: 2096895
VirtualMemory page size: 4096 log2_page_size: 12

CPU 0 runs traces/654.roms_s-1070B.champsimtrace.xz
CPU 0 Bimodal branch predictor
Basic BTB sets: 1024 ways: 8 indirect buffer size: 4096 RAS size: 64
Initializing LRU.
Initializing LRU.
Initializing LRU.
Initializing LRU.
Initializing rdLRU.
Initializing LRU.
Initializing LRU.
Heartbeat CPU 0 instructions: 10000001 cycles: 3527479 heartbeat IPC: 2.83489 cumulative IPC: 2.83489 (Simulation time: 0 hr 1 min 25 sec) 
Heartbeat CPU 0 instructions: 20000002 cycles: 7438531 heartbeat IPC: 2.55686 cumulative IPC: 2.6887 (Simulation time: 0 hr 3 min 1 sec) 
Heartbeat CPU 0 instructions: 30000000 cycles: 11132801 heartbeat IPC: 2.70689 cumulative IPC: 2.69474 (Simulation time: 0 hr 4 min 21 sec) 
Heartbeat CPU 0 instructions: 40000003 cycles: 14876926 heartbeat IPC: 2.67085 cumulative IPC: 2.68873 (Simulation time: 0 hr 5 min 51 sec) 
Heartbeat CPU 0 instructions: 50000002 cycles: 18843910 heartbeat IPC: 2.52081 cumulative IPC: 2.65338 (Simulation time: 0 hr 7 min 25 sec) 
Heartbeat CPU 0 instructions: 60000004 cycles: 22334921 heartbeat IPC: 2.8645 cumulative IPC: 2.68638 (Simulation time: 0 hr 8 min 48 sec) 
Heartbeat CPU 0 instructions: 70000003 cycles: 26282312 heartbeat IPC: 2.53332 cumulative IPC: 2.66339 (Simulation time: 0 hr 10 min 22 sec) 
Heartbeat CPU 0 instructions: 80000001 cycles: 29920339 heartbeat IPC: 2.74874 cumulative IPC: 2.67377 (Simulation time: 0 hr 11 min 49 sec) 
Heartbeat CPU 0 instructions: 90000003 cycles: 33720705 heartbeat IPC: 2.63133 cumulative IPC: 2.66898 (Simulation time: 0 hr 13 min 22 sec) 
Heartbeat CPU 0 instructions: 100000003 cycles: 37687694 heartbeat IPC: 2.5208 cumulative IPC: 2.65339 (Simulation time: 0 hr 15 min 0 sec) 
Heartbeat CPU 0 instructions: 110000000 cycles: 41159104 heartbeat IPC: 2.88067 cumulative IPC: 2.67256 (Simulation time: 0 hr 16 min 23 sec) 
Heartbeat CPU 0 instructions: 120000002 cycles: 45126091 heartbeat IPC: 2.52081 cumulative IPC: 2.65922 (Simulation time: 0 hr 18 min 4 sec) 
Heartbeat CPU 0 instructions: 130000001 cycles: 48727784 heartbeat IPC: 2.77647 cumulative IPC: 2.66788 (Simulation time: 0 hr 19 min 26 sec) 
Heartbeat CPU 0 instructions: 140000001 cycles: 52564487 heartbeat IPC: 2.6064 cumulative IPC: 2.6634 (Simulation time: 0 hr 20 min 48 sec) 
Heartbeat CPU 0 instructions: 150000002 cycles: 56458302 heartbeat IPC: 2.56818 cumulative IPC: 2.65683 (Simulation time: 0 hr 22 min 24 sec) 
Heartbeat CPU 0 instructions: 160000000 cycles: 60002874 heartbeat IPC: 2.82121 cumulative IPC: 2.66654 (Simulation time: 0 hr 23 min 43 sec) 
Heartbeat CPU 0 instructions: 170000001 cycles: 63969873 heartbeat IPC: 2.5208 cumulative IPC: 2.6575 (Simulation time: 0 hr 25 min 14 sec) 
Heartbeat CPU 0 instructions: 180000000 cycles: 67535232 heartbeat IPC: 2.80477 cumulative IPC: 2.66528 (Simulation time: 0 hr 26 min 35 sec) 
Heartbeat CPU 0 instructions: 190000003 cycles: 71408269 heartbeat IPC: 2.58195 cumulative IPC: 2.66076 (Simulation time: 0 hr 28 min 10 sec) 
Heartbeat CPU 0 instructions: 200000000 cycles: 75254886 heartbeat IPC: 2.59969 cumulative IPC: 2.65763 (Simulation time: 0 hr 29 min 42 sec) 
Heartbeat CPU 0 instructions: 210000002 cycles: 78286161 heartbeat IPC: 3.29894 cumulative IPC: 2.68247 (Simulation time: 0 hr 30 min 52 sec) 
Heartbeat CPU 0 instructions: 220000004 cycles: 82158658 heartbeat IPC: 2.58231 cumulative IPC: 2.67775 (Simulation time: 0 hr 32 min 11 sec) 
Heartbeat CPU 0 instructions: 230000001 cycles: 85451236 heartbeat IPC: 3.03713 cumulative IPC: 2.69159 (Simulation time: 0 hr 33 min 31 sec) 
Heartbeat CPU 0 instructions: 240000004 cycles: 88959615 heartbeat IPC: 2.85032 cumulative IPC: 2.69785 (Simulation time: 0 hr 34 min 58 sec) 
Heartbeat CPU 0 instructions: 250000002 cycles: 92785907 heartbeat IPC: 2.6135 cumulative IPC: 2.69437 (Simulation time: 0 hr 36 min 23 sec) 
Heartbeat CPU 0 instructions: 260000000 cycles: 95760093 heartbeat IPC: 3.36226 cumulative IPC: 2.71512 (Simulation time: 0 hr 37 min 32 sec) 
Heartbeat CPU 0 instructions: 270000001 cycles: 99632599 heartbeat IPC: 2.58231 cumulative IPC: 2.70996 (Simulation time: 0 hr 38 min 45 sec) 
Heartbeat CPU 0 instructions: 280000003 cycles: 103059165 heartbeat IPC: 2.91837 cumulative IPC: 2.71689 (Simulation time: 0 hr 40 min 3 sec) 
Heartbeat CPU 0 instructions: 290000003 cycles: 106433077 heartbeat IPC: 2.96392 cumulative IPC: 2.72472 (Simulation time: 0 hr 41 min 19 sec) 
Heartbeat CPU 0 instructions: 300000000 cycles: 110305571 heartbeat IPC: 2.58231 cumulative IPC: 2.71972 (Simulation time: 0 hr 42 min 48 sec) 
Heartbeat CPU 0 instructions: 310000002 cycles: 113233560 heartbeat IPC: 3.41531 cumulative IPC: 2.7377 (Simulation time: 0 hr 43 min 55 sec) 
Heartbeat CPU 0 instructions: 320000001 cycles: 117106054 heartbeat IPC: 2.58231 cumulative IPC: 2.73257 (Simulation time: 0 hr 45 min 18 sec) 
Heartbeat CPU 0 instructions: 330000000 cycles: 120667070 heartbeat IPC: 2.80819 cumulative IPC: 2.7348 (Simulation time: 0 hr 46 min 34 sec) 
Heartbeat CPU 0 instructions: 340000002 cycles: 123906193 heartbeat IPC: 3.08726 cumulative IPC: 2.74401 (Simulation time: 0 hr 47 min 40 sec) 
Heartbeat CPU 0 instructions: 350000001 cycles: 127778691 heartbeat IPC: 2.58231 cumulative IPC: 2.73911 (Simulation time: 0 hr 48 min 55 sec) 
Heartbeat CPU 0 instructions: 360000003 cycles: 130775273 heartbeat IPC: 3.33714 cumulative IPC: 2.75281 (Simulation time: 0 hr 50 min 6 sec) 
Heartbeat CPU 0 instructions: 370000000 cycles: 134578474 heartbeat IPC: 2.62936 cumulative IPC: 2.74933 (Simulation time: 0 hr 51 min 33 sec) 
Heartbeat CPU 0 instructions: 380000001 cycles: 138278180 heartbeat IPC: 2.70292 cumulative IPC: 2.74808 (Simulation time: 0 hr 53 min 0 sec) 
Heartbeat CPU 0 instructions: 390000003 cycles: 141378255 heartbeat IPC: 3.22573 cumulative IPC: 2.75856 (Simulation time: 0 hr 53 min 58 sec) 
Heartbeat CPU 0 instructions: 400000000 cycles: 145250757 heartbeat IPC: 2.58231 cumulative IPC: 2.75386 (Simulation time: 0 hr 55 min 23 sec) 
Heartbeat CPU 0 instructions: 410000000 cycles: 148383095 heartbeat IPC: 3.1925 cumulative IPC: 2.76312 (Simulation time: 0 hr 56 min 37 sec) 
Heartbeat CPU 0 instructions: 420000001 cycles: 152050529 heartbeat IPC: 2.7267 cumulative IPC: 2.76224 (Simulation time: 0 hr 58 min 0 sec) 
Heartbeat CPU 0 instructions: 430000004 cycles: 155810060 heartbeat IPC: 2.65991 cumulative IPC: 2.75977 (Simulation time: 0 hr 59 min 27 sec) 
Heartbeat CPU 0 instructions: 440000000 cycles: 158849831 heartbeat IPC: 3.28972 cumulative IPC: 2.76991 (Simulation time: 1 hr 0 min 41 sec) 
Heartbeat CPU 0 instructions: 450000000 cycles: 162722330 heartbeat IPC: 2.58231 cumulative IPC: 2.76545 (Simulation time: 1 hr 2 min 8 sec) 
Heartbeat CPU 0 instructions: 460000001 cycles: 165990611 heartbeat IPC: 3.05971 cumulative IPC: 2.77124 (Simulation time: 1 hr 3 min 17 sec) 
Heartbeat CPU 0 instructions: 470000001 cycles: 169521640 heartbeat IPC: 2.83204 cumulative IPC: 2.77251 (Simulation time: 1 hr 4 min 30 sec) 
Heartbeat CPU 0 instructions: 480000003 cycles: 173338423 heartbeat IPC: 2.62001 cumulative IPC: 2.76915 (Simulation time: 1 hr 5 min 55 sec) 
Heartbeat CPU 0 instructions: 490000000 cycles: 176320947 heartbeat IPC: 3.35286 cumulative IPC: 2.77902 (Simulation time: 1 hr 7 min 9 sec) 
Heartbeat CPU 0 instructions: 500000000 cycles: 180193442 heartbeat IPC: 2.58231 cumulative IPC: 2.7748 (Simulation time: 1 hr 8 min 26 sec) 

Warmup complete CPU 0 instructions: 500000001 cycles: 180193444 (Simulation time: 1 hr 8 min 26 sec) 

Heartbeat CPU 0 instructions: 510000002 cycles: 199983441 heartbeat IPC: 0.505306 cumulative IPC: 0.505306 (Simulation time: 1 hr 12 min 36 sec) 
Heartbeat CPU 0 instructions: 520000001 cycles: 220874087 heartbeat IPC: 0.478683 cumulative IPC: 0.491634 (Simulation time: 1 hr 17 min 20 sec) 
Heartbeat CPU 0 instructions: 530000001 cycles: 242997933 heartbeat IPC: 0.452001 cumulative IPC: 0.477673 (Simulation time: 1 hr 21 min 38 sec) 
Heartbeat CPU 0 instructions: 540000002 cycles: 267912479 heartbeat IPC: 0.401372 cumulative IPC: 0.456001 (Simulation time: 1 hr 26 min 20 sec) 
Heartbeat CPU 0 instructions: 550000002 cycles: 283564302 heartbeat IPC: 0.638903 cumulative IPC: 0.483695 (Simulation time: 1 hr 29 min 3 sec) 
Heartbeat CPU 0 instructions: 560000002 cycles: 303615459 heartbeat IPC: 0.498724 cumulative IPC: 0.486137 (Simulation time: 1 hr 32 min 31 sec) 
Heartbeat CPU 0 instructions: 570000002 cycles: 322557203 heartbeat IPC: 0.527934 cumulative IPC: 0.491698 (Simulation time: 1 hr 36 min 29 sec) 
Heartbeat CPU 0 instructions: 580000002 cycles: 341920919 heartbeat IPC: 0.51643 cumulative IPC: 0.494659 (Simulation time: 1 hr 40 min 2 sec) 
Heartbeat CPU 0 instructions: 590000003 cycles: 368131357 heartbeat IPC: 0.381527 cumulative IPC: 0.478882 (Simulation time: 1 hr 44 min 1 sec) 
Heartbeat CPU 0 instructions: 600000001 cycles: 382968181 heartbeat IPC: 0.673999 cumulative IPC: 0.493158 (Simulation time: 1 hr 46 min 54 sec) 
Heartbeat CPU 0 instructions: 610000001 cycles: 401994723 heartbeat IPC: 0.525582 cumulative IPC: 0.495939 (Simulation time: 1 hr 49 min 45 sec) 
Heartbeat CPU 0 instructions: 620000002 cycles: 419120077 heartbeat IPC: 0.58393 cumulative IPC: 0.502246 (Simulation time: 1 hr 52 min 54 sec) 
Heartbeat CPU 0 instructions: 630000001 cycles: 435513094 heartbeat IPC: 0.610016 cumulative IPC: 0.509166 (Simulation time: 1 hr 57 min 10 sec) 
Heartbeat CPU 0 instructions: 640000000 cycles: 461380253 heartbeat IPC: 0.386591 cumulative IPC: 0.49789 (Simulation time: 2 hr 2 min 56 sec) 
Heartbeat CPU 0 instructions: 650000004 cycles: 476325874 heartbeat IPC: 0.669093 cumulative IPC: 0.50653 (Simulation time: 2 hr 5 min 57 sec) 
Heartbeat CPU 0 instructions: 660000003 cycles: 494600358 heartbeat IPC: 0.547211 cumulative IPC: 0.508895 (Simulation time: 2 hr 10 min 1 sec) 
Heartbeat CPU 0 instructions: 670000003 cycles: 514629642 heartbeat IPC: 0.499269 cumulative IPC: 0.508318 (Simulation time: 2 hr 13 min 57 sec) 
Heartbeat CPU 0 instructions: 680000002 cycles: 533686981 heartbeat IPC: 0.524732 cumulative IPC: 0.509203 (Simulation time: 2 hr 18 min 6 sec) 
Heartbeat CPU 0 instructions: 690000000 cycles: 555157792 heartbeat IPC: 0.465748 cumulative IPC: 0.506715 (Simulation time: 2 hr 22 min 39 sec) 
Heartbeat CPU 0 instructions: 700000002 cycles: 571089384 heartbeat IPC: 0.627684 cumulative IPC: 0.511645 (Simulation time: 2 hr 26 min 16 sec) 
Heartbeat CPU 0 instructions: 710000003 cycles: 587335974 heartbeat IPC: 0.615514 cumulative IPC: 0.51579 (Simulation time: 2 hr 28 min 50 sec) 
Heartbeat CPU 0 instructions: 720000001 cycles: 608356462 heartbeat IPC: 0.475726 cumulative IPC: 0.513823 (Simulation time: 2 hr 31 min 43 sec) 
Heartbeat CPU 0 instructions: 730000000 cycles: 624891372 heartbeat IPC: 0.604781 cumulative IPC: 0.517205 (Simulation time: 2 hr 34 min 3 sec) 
Heartbeat CPU 0 instructions: 740000002 cycles: 645861798 heartbeat IPC: 0.476862 cumulative IPC: 0.515388 (Simulation time: 2 hr 36 min 56 sec) 
Heartbeat CPU 0 instructions: 750000002 cycles: 662346726 heartbeat IPC: 0.606615 cumulative IPC: 0.518507 (Simulation time: 2 hr 39 min 20 sec) 
Heartbeat CPU 0 instructions: 760000001 cycles: 677316077 heartbeat IPC: 0.668032 cumulative IPC: 0.52301 (Simulation time: 2 hr 41 min 36 sec) 
Heartbeat CPU 0 instructions: 770000003 cycles: 703268356 heartbeat IPC: 0.385323 cumulative IPC: 0.516178 (Simulation time: 2 hr 45 min 9 sec) 
Heartbeat CPU 0 instructions: 780000000 cycles: 719984373 heartbeat IPC: 0.598228 cumulative IPC: 0.518719 (Simulation time: 2 hr 48 min 1 sec) 
Heartbeat CPU 0 instructions: 790000001 cycles: 740713589 heartbeat IPC: 0.482411 cumulative IPC: 0.517377 (Simulation time: 2 hr 50 min 47 sec) 
Heartbeat CPU 0 instructions: 800000002 cycles: 756359453 heartbeat IPC: 0.639147 cumulative IPC: 0.520683 (Simulation time: 2 hr 52 min 58 sec) 
Heartbeat CPU 0 instructions: 810000001 cycles: 769941620 heartbeat IPC: 0.736259 cumulative IPC: 0.525648 (Simulation time: 2 hr 54 min 54 sec) 
Heartbeat CPU 0 instructions: 820000003 cycles: 795507874 heartbeat IPC: 0.391141 cumulative IPC: 0.520059 (Simulation time: 2 hr 58 min 11 sec) 
Heartbeat CPU 0 instructions: 830000000 cycles: 816227753 heartbeat IPC: 0.482628 cumulative IPC: 0.51884 (Simulation time: 3 hr 0 min 49 sec) 
Heartbeat CPU 0 instructions: 840000001 cycles: 839372337 heartbeat IPC: 0.432067 cumulative IPC: 0.515793 (Simulation time: 3 hr 3 min 48 sec) 
Heartbeat CPU 0 instructions: 850000001 cycles: 857381944 heartbeat IPC: 0.555259 cumulative IPC: 0.516843 (Simulation time: 3 hr 6 min 12 sec) 
Heartbeat CPU 0 instructions: 860000004 cycles: 874871745 heartbeat IPC: 0.571762 cumulative IPC: 0.518225 (Simulation time: 3 hr 8 min 34 sec) 
Heartbeat CPU 0 instructions: 870000001 cycles: 898609542 heartbeat IPC: 0.421269 cumulative IPC: 0.515022 (Simulation time: 3 hr 11 min 37 sec) 
Heartbeat CPU 0 instructions: 880000001 cycles: 915682041 heartbeat IPC: 0.585737 cumulative IPC: 0.516663 (Simulation time: 3 hr 13 min 55 sec) 
Heartbeat CPU 0 instructions: 890000003 cycles: 935045005 heartbeat IPC: 0.51645 cumulative IPC: 0.516658 (Simulation time: 3 hr 16 min 31 sec) 
Heartbeat CPU 0 instructions: 900000001 cycles: 952625806 heartbeat IPC: 0.568802 cumulative IPC: 0.517845 (Simulation time: 3 hr 18 min 53 sec) 
Heartbeat CPU 0 instructions: 910000000 cycles: 966312194 heartbeat IPC: 0.730653 cumulative IPC: 0.52155 (Simulation time: 3 hr 20 min 50 sec) 
Heartbeat CPU 0 instructions: 920000001 cycles: 989075984 heartbeat IPC: 0.439294 cumulative IPC: 0.519235 (Simulation time: 3 hr 23 min 48 sec) 
Heartbeat CPU 0 instructions: 930000000 cycles: 1006382403 heartbeat IPC: 0.57782 cumulative IPC: 0.520462 (Simulation time: 3 hr 26 min 7 sec) 
Heartbeat CPU 0 instructions: 940000004 cycles: 1026009073 heartbeat IPC: 0.509511 cumulative IPC: 0.520208 (Simulation time: 3 hr 28 min 43 sec) 
Heartbeat CPU 0 instructions: 950000002 cycles: 1049279383 heartbeat IPC: 0.429732 cumulative IPC: 0.517785 (Simulation time: 3 hr 31 min 41 sec) 
Heartbeat CPU 0 instructions: 960000000 cycles: 1066022443 heartbeat IPC: 0.597262 cumulative IPC: 0.519288 (Simulation time: 3 hr 33 min 58 sec) 
Heartbeat CPU 0 instructions: 970000003 cycles: 1086876948 heartbeat IPC: 0.479513 cumulative IPC: 0.518373 (Simulation time: 3 hr 36 min 43 sec) 
Heartbeat CPU 0 instructions: 980000004 cycles: 1104026063 heartbeat IPC: 0.583121 cumulative IPC: 0.519575 (Simulation time: 3 hr 39 min 1 sec) 
Heartbeat CPU 0 instructions: 990000000 cycles: 1120648139 heartbeat IPC: 0.601609 cumulative IPC: 0.521025 (Simulation time: 3 hr 41 min 15 sec) 
Heartbeat CPU 0 instructions: 1000000004 cycles: 1146234360 heartbeat IPC: 0.390836 cumulative IPC: 0.517576 (Simulation time: 3 hr 44 min 28 sec) 
Heartbeat CPU 0 instructions: 1010000003 cycles: 1162973069 heartbeat IPC: 0.597418 cumulative IPC: 0.518936 (Simulation time: 3 hr 46 min 40 sec) 
Heartbeat CPU 0 instructions: 1020000000 cycles: 1183591783 heartbeat IPC: 0.484996 cumulative IPC: 0.518239 (Simulation time: 3 hr 49 min 21 sec) 
Heartbeat CPU 0 instructions: 1030000003 cycles: 1202295859 heartbeat IPC: 0.534643 cumulative IPC: 0.518539 (Simulation time: 3 hr 51 min 49 sec) 
Heartbeat CPU 0 instructions: 1040000002 cycles: 1221208676 heartbeat IPC: 0.528742 cumulative IPC: 0.518724 (Simulation time: 3 hr 54 min 18 sec) 
Heartbeat CPU 0 instructions: 1050000000 cycles: 1246563265 heartbeat IPC: 0.394406 cumulative IPC: 0.515769 (Simulation time: 3 hr 57 min 29 sec) 
Heartbeat CPU 0 instructions: 1060000003 cycles: 1261216862 heartbeat IPC: 0.682427 cumulative IPC: 0.518028 (Simulation time: 3 hr 59 min 35 sec) 
Heartbeat CPU 0 instructions: 1070000001 cycles: 1280089750 heartbeat IPC: 0.52986 cumulative IPC: 0.518231 (Simulation time: 4 hr 2 min 9 sec) 
Heartbeat CPU 0 instructions: 1080000003 cycles: 1298391617 heartbeat IPC: 0.546392 cumulative IPC: 0.518692 (Simulation time: 4 hr 4 min 33 sec) 
Heartbeat CPU 0 instructions: 1090000002 cycles: 1317439174 heartbeat IPC: 0.525002 cumulative IPC: 0.518797 (Simulation time: 4 hr 7 min 2 sec) 
Heartbeat CPU 0 instructions: 1100000001 cycles: 1343060890 heartbeat IPC: 0.390294 cumulative IPC: 0.515966 (Simulation time: 4 hr 10 min 16 sec) 
Heartbeat CPU 0 instructions: 1110000001 cycles: 1357677906 heartbeat IPC: 0.684134 cumulative IPC: 0.518054 (Simulation time: 4 hr 12 min 16 sec) 
Heartbeat CPU 0 instructions: 1120000001 cycles: 1378357285 heartbeat IPC: 0.483574 cumulative IPC: 0.517458 (Simulation time: 4 hr 14 min 57 sec) 
Heartbeat CPU 0 instructions: 1130000004 cycles: 1398853954 heartbeat IPC: 0.487884 cumulative IPC: 0.516961 (Simulation time: 4 hr 17 min 36 sec) 
Heartbeat CPU 0 instructions: 1140000000 cycles: 1418283090 heartbeat IPC: 0.514691 cumulative IPC: 0.516925 (Simulation time: 4 hr 20 min 6 sec) 
Heartbeat CPU 0 instructions: 1150000003 cycles: 1440273797 heartbeat IPC: 0.454738 cumulative IPC: 0.51584 (Simulation time: 4 hr 22 min 57 sec) 
Heartbeat CPU 0 instructions: 1160000000 cycles: 1458665498 heartbeat IPC: 0.543723 cumulative IPC: 0.516241 (Simulation time: 4 hr 25 min 23 sec) 
Heartbeat CPU 0 instructions: 1170000003 cycles: 1479324161 heartbeat IPC: 0.484059 cumulative IPC: 0.515729 (Simulation time: 4 hr 28 min 6 sec) 
Heartbeat CPU 0 instructions: 1180000002 cycles: 1501758626 heartbeat IPC: 0.445743 cumulative IPC: 0.514541 (Simulation time: 4 hr 30 min 58 sec) 
Heartbeat CPU 0 instructions: 1190000004 cycles: 1518003925 heartbeat IPC: 0.615563 cumulative IPC: 0.515768 (Simulation time: 4 hr 33 min 12 sec) 
Heartbeat CPU 0 instructions: 1200000002 cycles: 1538601383 heartbeat IPC: 0.485497 cumulative IPC: 0.515309 (Simulation time: 4 hr 35 min 54 sec) 
Heartbeat CPU 0 instructions: 1210000003 cycles: 1558051972 heartbeat IPC: 0.514123 cumulative IPC: 0.515292 (Simulation time: 4 hr 38 min 22 sec) 
Heartbeat CPU 0 instructions: 1220000001 cycles: 1577629074 heartbeat IPC: 0.510801 cumulative IPC: 0.515229 (Simulation time: 4 hr 40 min 51 sec) 
Heartbeat CPU 0 instructions: 1230000000 cycles: 1601323501 heartbeat IPC: 0.42204 cumulative IPC: 0.513676 (Simulation time: 4 hr 43 min 54 sec) 
Heartbeat CPU 0 instructions: 1240000004 cycles: 1624431176 heartbeat IPC: 0.432757 cumulative IPC: 0.512381 (Simulation time: 4 hr 47 min 16 sec) 
Heartbeat CPU 0 instructions: 1250000000 cycles: 1644326704 heartbeat IPC: 0.502625 cumulative IPC: 0.512248 (Simulation time: 4 hr 49 min 54 sec) 
Heartbeat CPU 0 instructions: 1260000001 cycles: 1660904670 heartbeat IPC: 0.60321 cumulative IPC: 0.513267 (Simulation time: 4 hr 52 min 9 sec) 
Heartbeat CPU 0 instructions: 1270000001 cycles: 1676706750 heartbeat IPC: 0.632828 cumulative IPC: 0.514529 (Simulation time: 4 hr 54 min 8 sec) 
Heartbeat CPU 0 instructions: 1280000001 cycles: 1690527353 heartbeat IPC: 0.723557 cumulative IPC: 0.516442 (Simulation time: 4 hr 55 min 51 sec) 
Heartbeat CPU 0 instructions: 1290000000 cycles: 1706195482 heartbeat IPC: 0.638238 cumulative IPC: 0.517693 (Simulation time: 4 hr 57 min 55 sec) 
Heartbeat CPU 0 instructions: 1300000000 cycles: 1726379134 heartbeat IPC: 0.49545 cumulative IPC: 0.517402 (Simulation time: 5 hr 0 min 41 sec) 
Heartbeat CPU 0 instructions: 1310000001 cycles: 1747318063 heartbeat IPC: 0.477579 cumulative IPC: 0.51687 (Simulation time: 5 hr 3 min 23 sec) 
Heartbeat CPU 0 instructions: 1320000001 cycles: 1763482967 heartbeat IPC: 0.618624 cumulative IPC: 0.517909 (Simulation time: 5 hr 5 min 34 sec) 
Heartbeat CPU 0 instructions: 1330000003 cycles: 1775306627 heartbeat IPC: 0.845762 cumulative IPC: 0.520339 (Simulation time: 5 hr 7 min 9 sec) 
Heartbeat CPU 0 instructions: 1340000004 cycles: 1791490580 heartbeat IPC: 0.617896 cumulative IPC: 0.521319 (Simulation time: 5 hr 9 min 5 sec) 
Heartbeat CPU 0 instructions: 1350000000 cycles: 1808948604 heartbeat IPC: 0.572802 cumulative IPC: 0.521871 (Simulation time: 5 hr 11 min 11 sec) 
Heartbeat CPU 0 instructions: 1360000001 cycles: 1829661363 heartbeat IPC: 0.482794 cumulative IPC: 0.52138 (Simulation time: 5 hr 14 min 2 sec) 
Heartbeat CPU 0 instructions: 1370000001 cycles: 1854898805 heartbeat IPC: 0.396237 cumulative IPC: 0.519494 (Simulation time: 5 hr 17 min 11 sec) 
Heartbeat CPU 0 instructions: 1380000000 cycles: 1869567443 heartbeat IPC: 0.681726 cumulative IPC: 0.520903 (Simulation time: 5 hr 19 min 17 sec) 
Heartbeat CPU 0 instructions: 1390000001 cycles: 1885479851 heartbeat IPC: 0.62844 cumulative IPC: 0.521906 (Simulation time: 5 hr 21 min 17 sec) 
Heartbeat CPU 0 instructions: 1400000004 cycles: 1900067614 heartbeat IPC: 0.685506 cumulative IPC: 0.523294 (Simulation time: 5 hr 23 min 7 sec) 
Heartbeat CPU 0 instructions: 1410000001 cycles: 1913758107 heartbeat IPC: 0.730434 cumulative IPC: 0.52493 (Simulation time: 5 hr 24 min 50 sec) 
Heartbeat CPU 0 instructions: 1420000003 cycles: 1933039012 heartbeat IPC: 0.518648 cumulative IPC: 0.524861 (Simulation time: 5 hr 27 min 30 sec) 
Heartbeat CPU 0 instructions: 1430000004 cycles: 1954648259 heartbeat IPC: 0.462765 cumulative IPC: 0.524105 (Simulation time: 5 hr 30 min 18 sec) 
Heartbeat CPU 0 instructions: 1440000002 cycles: 1972052776 heartbeat IPC: 0.574563 cumulative IPC: 0.524595 (Simulation time: 5 hr 32 min 36 sec) 
Heartbeat CPU 0 instructions: 1450000003 cycles: 1985131450 heartbeat IPC: 0.764604 cumulative IPC: 0.526334 (Simulation time: 5 hr 34 min 19 sec) 
Heartbeat CPU 0 instructions: 1460000002 cycles: 1999858866 heartbeat IPC: 0.679006 cumulative IPC: 0.52757 (Simulation time: 5 hr 36 min 9 sec) 
Heartbeat CPU 0 instructions: 1470000000 cycles: 2016981625 heartbeat IPC: 0.584018 cumulative IPC: 0.528096 (Simulation time: 5 hr 38 min 9 sec) 
Heartbeat CPU 0 instructions: 1480000004 cycles: 2035452293 heartbeat IPC: 0.541399 cumulative IPC: 0.528228 (Simulation time: 5 hr 40 min 44 sec) 
Heartbeat CPU 0 instructions: 1490000001 cycles: 2056113198 heartbeat IPC: 0.484006 cumulative IPC: 0.527741 (Simulation time: 5 hr 43 min 30 sec) 
Heartbeat CPU 0 instructions: 1500000002 cycles: 2071768599 heartbeat IPC: 0.638757 cumulative IPC: 0.52866 (Simulation time: 5 hr 45 min 42 sec) 
Heartbeat CPU 0 instructions: 1510000001 cycles: 2085211615 heartbeat IPC: 0.743881 cumulative IPC: 0.530179 (Simulation time: 5 hr 47 min 32 sec) 
Heartbeat CPU 0 instructions: 1520000001 cycles: 2098414165 heartbeat IPC: 0.757429 cumulative IPC: 0.531743 (Simulation time: 5 hr 49 min 15 sec) 
Heartbeat CPU 0 instructions: 1530000004 cycles: 2112066187 heartbeat IPC: 0.732492 cumulative IPC: 0.533161 (Simulation time: 5 hr 50 min 59 sec) 
Heartbeat CPU 0 instructions: 1540000001 cycles: 2130315056 heartbeat IPC: 0.547979 cumulative IPC: 0.5333 (Simulation time: 5 hr 53 min 27 sec) 
Heartbeat CPU 0 instructions: 1550000002 cycles: 2155728726 heartbeat IPC: 0.393489 cumulative IPC: 0.531502 (Simulation time: 5 hr 56 min 44 sec) 
Heartbeat CPU 0 instructions: 1560000003 cycles: 2174366353 heartbeat IPC: 0.536549 cumulative IPC: 0.531549 (Simulation time: 5 hr 59 min 10 sec) 
Heartbeat CPU 0 instructions: 1570000004 cycles: 2188448364 heartbeat IPC: 0.710126 cumulative IPC: 0.532801 (Simulation time: 6 hr 1 min 4 sec) 
Heartbeat CPU 0 instructions: 1580000000 cycles: 2200914309 heartbeat IPC: 0.802185 cumulative IPC: 0.534463 (Simulation time: 6 hr 2 min 42 sec) 
Heartbeat CPU 0 instructions: 1590000003 cycles: 2218059452 heartbeat IPC: 0.583256 cumulative IPC: 0.534873 (Simulation time: 6 hr 4 min 42 sec) 
Heartbeat CPU 0 instructions: 1600000004 cycles: 2235391051 heartbeat IPC: 0.576981 cumulative IPC: 0.535228 (Simulation time: 6 hr 7 min 0 sec) 
Heartbeat CPU 0 instructions: 1610000000 cycles: 2260917083 heartbeat IPC: 0.391757 cumulative IPC: 0.533468 (Simulation time: 6 hr 10 min 17 sec) 
Heartbeat CPU 0 instructions: 1620000001 cycles: 2279666545 heartbeat IPC: 0.533349 cumulative IPC: 0.533467 (Simulation time: 6 hr 12 min 46 sec) 
Heartbeat CPU 0 instructions: 1630000003 cycles: 2294385312 heartbeat IPC: 0.679405 cumulative IPC: 0.534483 (Simulation time: 6 hr 14 min 48 sec) 
Heartbeat CPU 0 instructions: 1640000003 cycles: 2309326084 heartbeat IPC: 0.669309 cumulative IPC: 0.535429 (Simulation time: 6 hr 16 min 42 sec) 
Heartbeat CPU 0 instructions: 1650000002 cycles: 2323054510 heartbeat IPC: 0.728416 cumulative IPC: 0.536666 (Simulation time: 6 hr 18 min 26 sec) 
Heartbeat CPU 0 instructions: 1660000000 cycles: 2338041286 heartbeat IPC: 0.667255 cumulative IPC: 0.537573 (Simulation time: 6 hr 20 min 27 sec) 
Heartbeat CPU 0 instructions: 1670000001 cycles: 2356517336 heartbeat IPC: 0.541241 cumulative IPC: 0.537604 (Simulation time: 6 hr 23 min 0 sec) 
Heartbeat CPU 0 instructions: 1680000003 cycles: 2380188001 heartbeat IPC: 0.422464 cumulative IPC: 0.536365 (Simulation time: 6 hr 25 min 59 sec) 
Heartbeat CPU 0 instructions: 1690000002 cycles: 2399817353 heartbeat IPC: 0.509441 cumulative IPC: 0.536127 (Simulation time: 6 hr 28 min 30 sec) 
Heartbeat CPU 0 instructions: 1700000000 cycles: 2412125608 heartbeat IPC: 0.812463 cumulative IPC: 0.537651 (Simulation time: 6 hr 30 min 8 sec) 
Heartbeat CPU 0 instructions: 1710000004 cycles: 2428502882 heartbeat IPC: 0.610602 cumulative IPC: 0.538182 (Simulation time: 6 hr 32 min 5 sec) 
Heartbeat CPU 0 instructions: 1720000004 cycles: 2446256854 heartbeat IPC: 0.563254 cumulative IPC: 0.538379 (Simulation time: 6 hr 34 min 15 sec) 
Heartbeat CPU 0 instructions: 1730000004 cycles: 2465684052 heartbeat IPC: 0.514742 cumulative IPC: 0.538178 (Simulation time: 6 hr 36 min 57 sec) 
Heartbeat CPU 0 instructions: 1740000004 cycles: 2486614883 heartbeat IPC: 0.477764 cumulative IPC: 0.537629 (Simulation time: 6 hr 39 min 41 sec) 
Heartbeat CPU 0 instructions: 1750000000 cycles: 2502552612 heartbeat IPC: 0.627442 cumulative IPC: 0.538246 (Simulation time: 6 hr 41 min 56 sec) 
Heartbeat CPU 0 instructions: 1760000002 cycles: 2515323210 heartbeat IPC: 0.783049 cumulative IPC: 0.539585 (Simulation time: 6 hr 43 min 36 sec) 
Heartbeat CPU 0 instructions: 1770000002 cycles: 2528783281 heartbeat IPC: 0.742938 cumulative IPC: 0.54075 (Simulation time: 6 hr 45 min 19 sec) 
Heartbeat CPU 0 instructions: 1780000003 cycles: 2542704499 heartbeat IPC: 0.718328 cumulative IPC: 0.541796 (Simulation time: 6 hr 47 min 4 sec) 
Heartbeat CPU 0 instructions: 1790000000 cycles: 2563236397 heartbeat IPC: 0.487047 cumulative IPC: 0.541325 (Simulation time: 6 hr 49 min 55 sec) 
Heartbeat CPU 0 instructions: 1800000000 cycles: 2586877177 heartbeat IPC: 0.422998 cumulative IPC: 0.540162 (Simulation time: 6 hr 52 min 57 sec) 
Heartbeat CPU 0 instructions: 1810000000 cycles: 2604147835 heartbeat IPC: 0.579017 cumulative IPC: 0.540439 (Simulation time: 6 hr 55 min 16 sec) 
Heartbeat CPU 0 instructions: 1820000003 cycles: 2617523325 heartbeat IPC: 0.747636 cumulative IPC: 0.541576 (Simulation time: 6 hr 57 min 3 sec) 
Heartbeat CPU 0 instructions: 1830000002 cycles: 2632735491 heartbeat IPC: 0.657369 cumulative IPC: 0.542295 (Simulation time: 6 hr 58 min 56 sec) 
Heartbeat CPU 0 instructions: 1840000004 cycles: 2649862430 heartbeat IPC: 0.583876 cumulative IPC: 0.542583 (Simulation time: 7 hr 0 min 56 sec) 
Heartbeat CPU 0 instructions: 1850000001 cycles: 2669158858 heartbeat IPC: 0.51823 cumulative IPC: 0.542394 (Simulation time: 7 hr 3 min 35 sec) 
Heartbeat CPU 0 instructions: 1860000004 cycles: 2694726465 heartbeat IPC: 0.39112 cumulative IPC: 0.540856 (Simulation time: 7 hr 6 min 51 sec) 
Heartbeat CPU 0 instructions: 1870000000 cycles: 2709921113 heartbeat IPC: 0.658126 cumulative IPC: 0.54156 (Simulation time: 7 hr 8 min 58 sec) 
Heartbeat CPU 0 instructions: 1880000000 cycles: 2724764559 heartbeat IPC: 0.673698 cumulative IPC: 0.542331 (Simulation time: 7 hr 10 min 55 sec) 
Heartbeat CPU 0 instructions: 1890000004 cycles: 2739349826 heartbeat IPC: 0.685624 cumulative IPC: 0.543148 (Simulation time: 7 hr 12 min 45 sec) 
Heartbeat CPU 0 instructions: 1900000000 cycles: 2752992565 heartbeat IPC: 0.73299 cumulative IPC: 0.544154 (Simulation time: 7 hr 14 min 27 sec) 
Heartbeat CPU 0 instructions: 1910000000 cycles: 2771435851 heartbeat IPC: 0.542203 cumulative IPC: 0.544141 (Simulation time: 7 hr 16 min 57 sec) 
Heartbeat CPU 0 instructions: 1920000004 cycles: 2792655213 heartbeat IPC: 0.471268 cumulative IPC: 0.543549 (Simulation time: 7 hr 19 min 44 sec) 
Heartbeat CPU 0 instructions: 1930000000 cycles: 2811761105 heartbeat IPC: 0.523399 cumulative IPC: 0.543402 (Simulation time: 7 hr 22 min 10 sec) 
Heartbeat CPU 0 instructions: 1940000000 cycles: 2827392375 heartbeat IPC: 0.639743 cumulative IPC: 0.543971 (Simulation time: 7 hr 24 min 10 sec) 
Heartbeat CPU 0 instructions: 1950000000 cycles: 2842343815 heartbeat IPC: 0.668832 cumulative IPC: 0.544672 (Simulation time: 7 hr 25 min 59 sec) 
Heartbeat CPU 0 instructions: 1960000000 cycles: 2859477553 heartbeat IPC: 0.583644 cumulative IPC: 0.544922 (Simulation time: 7 hr 27 min 59 sec) 
Heartbeat CPU 0 instructions: 1970000000 cycles: 2879062015 heartbeat IPC: 0.510609 cumulative IPC: 0.544673 (Simulation time: 7 hr 30 min 30 sec) 
Heartbeat CPU 0 instructions: 1980000000 cycles: 2898839912 heartbeat IPC: 0.505615 cumulative IPC: 0.544389 (Simulation time: 7 hr 33 min 12 sec) 
Heartbeat CPU 0 instructions: 1990000000 cycles: 2917504063 heartbeat IPC: 0.535787 cumulative IPC: 0.54433 (Simulation time: 7 hr 35 min 40 sec) 
*** Reached end of trace: traces/654.roms_s-1070B.champsimtrace.xz
Heartbeat CPU 0 instructions: 2000000003 cycles: 2931334610 heartbeat IPC: 0.723037 cumulative IPC: 0.545228 (Simulation time: 7 hr 37 min 36 sec) 
Finished CPU 0 instructions: 1500000002 cycles: 2751141166 cumulative IPC: 0.545228 (Simulation time: 7 hr 37 min 36 sec) 

ChampSim completed all CPUs

Region of Interest Statistics

CPU 0 cumulative IPC: 0.545228 instructions: 1500000002 cycles: 2751141166
cpu0_DTLB TOTAL     ACCESS:  397027818  HIT:  396148069  MISS:     879749
cpu0_DTLB LOAD      ACCESS:  355646595  HIT:  354927005  MISS:     719590
cpu0_DTLB RFO       ACCESS:   41381223  HIT:   41221064  MISS:     160159
cpu0_DTLB PREFETCH  ACCESS:          0  HIT:          0  MISS:          0
cpu0_DTLB WRITEBACK ACCESS:          0  HIT:          0  MISS:          0
cpu0_DTLB TRANSLATION ACCESS:          0  HIT:          0  MISS:          0
cpu0_DTLB PREFETCH  REQUESTED:          0  ISSUED:          0  USEFUL:          0  USELESS:          0
cpu0_DTLB AVERAGE MISS LATENCY: 49.1124 cycles
cpu0_ITLB TOTAL     ACCESS:    5962989  HIT:    5962973  MISS:         16
cpu0_ITLB LOAD      ACCESS:    5962989  HIT:    5962973  MISS:         16
cpu0_ITLB RFO       ACCESS:          0  HIT:          0  MISS:          0
cpu0_ITLB PREFETCH  ACCESS:          0  HIT:          0  MISS:          0
cpu0_ITLB WRITEBACK ACCESS:          0  HIT:          0  MISS:          0
cpu0_ITLB TRANSLATION ACCESS:          0  HIT:          0  MISS:          0
cpu0_ITLB PREFETCH  REQUESTED:          0  ISSUED:          0  USEFUL:          0  USELESS:          0
cpu0_ITLB AVERAGE MISS LATENCY: 237.188 cycles
cpu0_L1I TOTAL     ACCESS:    9186797  HIT:    9186525  MISS:        272
cpu0_L1I LOAD      ACCESS:    9186797  HIT:    9186525  MISS:        272
cpu0_L1I RFO       ACCESS:          0  HIT:          0  MISS:          0
cpu0_L1I PREFETCH  ACCESS:          0  HIT:          0  MISS:          0
cpu0_L1I WRITEBACK ACCESS:          0  HIT:          0  MISS:          0
cpu0_L1I TRANSLATION ACCESS:          0  HIT:          0  MISS:          0
cpu0_L1I PREFETCH  REQUESTED:          0  ISSUED:          0  USEFUL:          0  USELESS:          0
cpu0_L1I AVERAGE MISS LATENCY: 272.338 cycles
cpu0_STLB TOTAL     ACCESS:     879765  HIT:      89302  MISS:     790463
cpu0_STLB LOAD      ACCESS:     719606  HIT:      72511  MISS:     647095
cpu0_STLB RFO       ACCESS:     160159  HIT:      16791  MISS:     143368
cpu0_STLB PREFETCH  ACCESS:          0  HIT:          0  MISS:          0
cpu0_STLB WRITEBACK ACCESS:          0  HIT:          0  MISS:          0
cpu0_STLB TRANSLATION ACCESS:          0  HIT:          0  MISS:          0
cpu0_STLB PREFETCH  REQUESTED:          0  ISSUED:          0  USEFUL:          0  USELESS:          0
cpu0_STLB AVERAGE MISS LATENCY: 44.611 cycles
cpu0_L1D TOTAL     ACCESS:  270665610  HIT:  225908275  MISS:   44757335
cpu0_L1D LOAD      ACCESS:  251818353  HIT:  215402755  MISS:   36415598
cpu0_L1D RFO       ACCESS:   18057650  HIT:    9806767  MISS:    8250883
cpu0_L1D PREFETCH  ACCESS:          0  HIT:          0  MISS:          0
cpu0_L1D WRITEBACK ACCESS:          0  HIT:          0  MISS:          0
cpu0_L1D TRANSLATION ACCESS:     789607  HIT:     698753  MISS:      90854
cpu0_L1D PREFETCH  REQUESTED:          0  ISSUED:          0  USEFUL:          0  USELESS:          0
cpu0_L1D AVERAGE MISS LATENCY: 418.249 cycles
cpu0_L2C TOTAL     ACCESS:   53468169  HIT:   17706541  MISS:   35761628
cpu0_L2C LOAD      ACCESS:   36415869  HIT:    8907312  MISS:   27508557
cpu0_L2C RFO       ACCESS:    8250883  HIT:         24  MISS:    8250859
cpu0_L2C PREFETCH  ACCESS:          0  HIT:          0  MISS:          0
cpu0_L2C WRITEBACK ACCESS:    8710563  HIT:    8710353  MISS:        210
cpu0_L2C TRANSLATION ACCESS:      90854  HIT:      88852  MISS:       2002
cpu0_L2C PREFETCH  REQUESTED:          0  ISSUED:          0  USEFUL:          0  USELESS:          0
cpu0_L2C AVERAGE MISS LATENCY: 509.621 cycles
LLC TOTAL     ACCESS:   44412043  HIT:    8650606  MISS:   35761437
LLC LOAD      ACCESS:   27508557  HIT:         23  MISS:   27508534
LLC RFO       ACCESS:    8250859  HIT:          0  MISS:    8250859
LLC PREFETCH  ACCESS:          0  HIT:          0  MISS:          0
LLC WRITEBACK ACCESS:    8650625  HIT:    8650325  MISS:        300
LLC TRANSLATION ACCESS:       2002  HIT:        258  MISS:       1744
LLC PREFETCH  REQUESTED:          0  ISSUED:          0  USEFUL:          0  USELESS:          0
LLC AVERAGE MISS LATENCY: 488.624 cycles
~~~~~~~~~~Reuse Distance Profiler output~~~~~~~~~~
0	20767120	16855856
1	23875552	20918368
2	32285248	29405168
3	38597744	34740768
4	25823248	23107232
5	23548480	21080960
6	21449328	19628016
7	19626128	18572208
8	14231072	13356016
9	12978704	12006064
10	11039504	10565392
11	9383264	8297520
12	7202928	6952336
13	7070768	6677552
14	7174240	6764880
15	7141264	6453360
16	9898224	8960752
17	10720624	10094656
18	9758752	9252080
19	8737392	8520896
20	10946816	10711808
21	12451936	12062656
22	11777168	11518304
23	5737888	5395248
24	1723440	1514944
25	1606352	1521872
26	1365264	981696
27	1135584	897392
28	837744	713888
29	773264	694256
30	693520	673216
31	591104	518624
32	365872	325936
33	278160	256016
34	288288	262512
35	285296	279344
36	255952	247584
37	139024	136400
38	171360	168976
39	189824	187072
40	82672	81152
41	110688	108864
42	66192	64240
43	67072	65120
44	391264	389168
45	97232	94512
46	106736	103568
47	128896	125424
48	156096	151744
49	94768	90848
50	84896	81920
51	108608	105520
52	93568	90512
53	53792	50544
54	99216	96624
55	75328	73344
56	31632	29376
57	59648	57728
58	55728	54000
59	70800	68464
60	145456	142624
61	106992	104512
62	76528	73696
63	16592	14656
64	35120	32352
66	185696	182880
68	49216	47616
70	18496	17104
72	205824	204224
74	32752	31648
76	48416	47648
78	30496	29968
80	9696	9328
82	89232	88896
84	9312	9120
86	11168	10992
88	105888	105792
90	60016	59984
92	45376	45264
94	35872	35872
96	62128	62096
98	10288	10288
100	2864	2864
102	336	336
104	384	368
106	0	0
108	16	16
110	0	0
112	0	0
114	16	0
116	0	0
118	0	0
120	0	0
122	0	0
124	32	0
126	0	0
128	80	0
132	64	0
136	0	0
140	32	32
144	1344	1344
148	1920	1920
152	176	176
156	0	0
160	0	0
164	0	0
168	0	0
172	0	0
176	0	0
180	0	0
184	0	0
188	0	0
192	0	0
196	0	0
200	0	0
204	0	0
208	16	16
212	0	0
216	0	0
220	0	0
224	0	0
228	0	0
232	0	0
236	0	0
240	0	0
244	0	0
248	0	0
252	0	0
256	0	0
264	0	0
272	0	0
280	0	0
288	0	0
296	0	0
304	0	0
312	16	16
320	32	32
328	480	480
336	624	624
344	944	928
352	1120	1120
360	1376	1376
368	1600	1600
376	2688	2688
384	3120	3120
392	3760	3760
400	4368	4368
408	5296	5280
416	4160	4160
424	4544	4544
432	3904	3904
440	4096	4096
448	2880	2880
456	2720	2720
464	2736	2736
472	2512	2512
480	2160	2160
488	3216	3216
496	5312	5312
504	11632	11632
512	267792	267792
528	603424	603424
544	609952	609952
560	346320	346320
576	84480	84480
592	11232	11232
608	1120	1120
624	64	64
640	16	16
656	0	0
672	0	0
688	0	0
704	0	0
720	0	0
736	0	0
752	0	0
768	0	0
784	0	0
800	0	0
816	0	0
832	0	0
848	0	0
864	0	0
880	0	0
896	0	0
912	0	0
928	0	0
944	0	0
960	0	0
976	0	0
992	0	0
1008	0	0
1024	0	0
1056	0	0
1088	0	0
1120	0	0
1152	0	0
1184	0	0
1216	48	48
1248	192	192
1280	1696	1696
1312	5856	5856
1344	13840	13840
1376	21600	21600
1408	19808	19808
1440	12832	12832
1472	6480	6480
1504	2832	2832
1536	1360	1360
1568	544	544
1600	384	384
1632	304	304
1664	208	208
1696	304	304
1728	272	272
1760	1280	1280
1792	14704	14704
1824	109168	109168
1856	308656	308656
1888	365408	365408
1920	301248	301248
1952	220336	220320
1984	151328	151328
2016	92496	92496
2048	119664	119664
2112	94288	94272
2176	134896	134880
2240	1814304	1814288
2304	118864	118864
2368	156848	156848
2432	639248	639248
2496	50672	50672
2560	16	16
2624	0	0
2688	0	0
2752	0	0
2816	0	0
2880	0	0
2944	0	0
3008	0	0
3072	0	0
3136	0	0
3200	256	256
3264	17264	17264
3328	225344	225344
3392	280944	280944
3456	395072	395072
3520	253952	253952
3584	183520	183520
3648	274672	274672
3712	234992	234992
3776	642864	642864
3840	2816	2816
3904	110304	110304
3968	804704	804704
4032	601616	601616
4096	194432	194432
4224	0	0
4352	0	0
4480	0	0
4608	0	0
4736	0	0
4864	0	0
4992	0	0
5120	0	0
5248	0	0
5376	0	0
5504	0	0
5632	16	16
5760	1680	1680
5888	3088	3088
6016	2624	2624
6144	7840	7840
6272	25952	25952
6400	384160	384160
6528	1524896	1524896
6656	993200	993200
6784	1051984	1051984
6912	500624	500624
7040	1102576	1102576
7168	114928	114928
7296	20880	20880
7424	64	64
7552	48	48
7680	0	0
7808	16	16
7936	16	16
8064	32	32
8192	64	64
8448	32	32
8704	0	0
8960	48	48
9216	864	864
9472	33472	33472
9728	128	128
9984	0	0
10240	0	0
10496	0	0
10752	0	0
11008	2255616	2255616
11264	118912	118912
11520	0	0
11776	0	0
12032	0	0
12288	0	0
12544	0	0
12800	0	0
13056	0	0
13312	0	0
13568	0	0
13824	0	0
14080	0	0
14336	0	0
14592	0	0
14848	0	0
15104	0	0
15360	0	0
15616	0	0
15872	0	0
16128	0	0
16384	0	0
16896	0	0
17408	0	0
17920	0	0
18432	0	0
18944	0	0
19456	0	0
19968	0	0
20480	0	0
20992	0	0
21504	0	0
22016	0	0
22528	0	0
23040	0	0
23552	0	0
24064	0	0
24576	0	0
25088	0	0
25600	0	0
26112	0	0
26624	0	0
27136	0	0
27648	0	0
28160	0	0
28672	0	0
29184	0	0
29696	0	0
30208	0	0
30720	0	0
31232	0	0
31744	0	0
32256	0	0
32768	0	0
33792	0	0
34816	0	0
35840	0	0
36864	0	0
37888	0	0
38912	0	0
39936	0	0
40960	0	0
41984	0	0
43008	0	0
44032	0	0
45056	0	0
46080	0	0
47104	0	0
48128	0	0
49152	0	0
50176	0	0
51200	0	0
52224	0	0
53248	0	0
54272	0	0
55296	0	0
56320	0	0
57344	0	0
58368	0	0
59392	0	0
60416	0	0
61440	0	0
62464	0	0
63488	0	0
64512	0	0
65536	0	0
67584	0	0
69632	0	0
71680	0	0
73728	0	0
75776	16	16
77824	0	0
79872	0	0
81920	0	0
83968	0	0
86016	0	0
88064	0	0
90112	0	0
92160	0	0
94208	0	0
96256	0	0
98304	0	0
100352	0	0
102400	0	0
104448	0	0
106496	0	0
108544	0	0
110592	0	0
112640	0	0
114688	0	0
116736	0	0
118784	0	0
120832	0	0
122880	0	0
124928	0	0
126976	0	0
129024	0	0
131072	0	0
135168	0	0
139264	0	0
143360	0	0
147456	0	0
151552	0	0
155648	0	0
159744	0	0
163840	0	0
167936	0	0
172032	0	0
176128	0	0
180224	0	0
184320	0	0
188416	0	0
192512	0	0
196608	432	432
200704	1264	1264
204800	1632	1632
208896	2000	2000
212992	2192	2192
217088	3264	3264
221184	3328	3328
225280	3200	3200
229376	3648	3648
233472	5104	5104
237568	5280	5280
241664	5216	5216
245760	5200	5200
249856	5440	5440
253952	5472	5472
258048	4912	4912
262144	10784	10784
270336	12528	12528
278528	21712	21712
286720	31296	31296
294912	27200	27200
303104	25120	25120
311296	25616	25616
319488	25488	25488
327680	23664	23664
335872	26736	26736
344064	27072	27072
352256	26352	26352
360448	27968	27968
368640	27392	27392
376832	23552	23552
385024	27376	27376
393216	23584	23584
401408	28672	28672
409600	27072	27072
417792	29184	29184
425984	25200	25200
434176	27008	27008
442368	27264	27264
450560	26368	26368
458752	26592	26592
466944	28384	28384
475136	25600	25600
483328	27792	27792
491520	26000	26000
499712	27120	27120
507904	27936	27936
516096	27600	27600
524288	52784	52784
540672	51728	51728
557056	54928	54928
573440	53152	53152
589824	55312	55312
606208	52704	52704
622592	53968	53968
638976	55344	55344
655360	53904	53904
671744	55008	55008
688128	54640	54640
704512	65168	65168
720896	98784	98784
737280	109952	109920
753664	125968	125760
770048	129952	129712
786432	130896	130656
802816	128016	127840
819200	130800	130592
835584	130320	130064
851968	130688	130416
868352	134320	134048
884736	132096	131840
901120	131488	131280
917504	133168	133008
933888	133920	133744
950272	130032	129776
966656	114000	113824
983040	91232	91040
999424	74752	74528
1015808	63888	63696
1032192	53376	53184
1048576	97440	97008
1081344	95632	95248
1114112	90336	89808
1146880	98032	97744
1179648	82560	82096
1212416	67568	67152
1245184	73360	73056
1277952	106096	105776
1310720	101056	100720
1343488	98896	98496
1376256	106528	106256
1409024	105856	105440
1441792	110544	107168
1474560	154304	124880
1507328	147552	120496
1540096	152656	126016
1572864	150032	124000
1605632	153488	126992
1638400	151792	124448
1671168	197168	169920
1703936	220944	194448
1736704	274240	243280
1769472	278048	244736
1802240	354848	318784
1835008	361760	322176
1867776	351984	310944
1900544	401760	357456
1933312	423680	378112
1966080	387728	340832
1998848	383856	338624
2031616	373456	328704
2064384	254512	208192
2097152	315920	222432
2162688	299680	209072
2228224	302832	211536
2293760	300016	208672
2359296	300000	208480
2424832	300048	209136
2490368	305104	214400
2555904	302768	211392
2621440	308912	217360
2686976	311168	214352
2752512	331536	219680
2818048	333200	210064
2883584	340928	205552
2949120	345584	202320
3014656	335488	192672
3080192	344096	196864
3145728	336384	191952
3211264	337136	200160
3276800	326080	187008
3342336	307552	166944
3407872	295888	155632
3473408	281680	143392
3538944	271728	137328
3604480	268416	127408
3670016	281632	124016
3735552	292800	119424
3801088	293552	119872
3866624	299440	125776
3932160	301536	129584
3997696	305184	134560
4063232	300016	135008
4128768	301280	133040
4194304	609648	272128
4325376	602848	269952
4456448	589264	270544
4587520	461520	231584
4718592	387536	238048
4849664	676640	593664
4980736	625392	545024
5111808	424256	338464
5242880	365824	283600
5373952	362752	281440
5505024	368544	281152
5636096	373856	287024
5767168	350288	264016
5898240	343856	260112
6029312	375168	263040
6160384	394944	205712
6291456	400384	188624
6422528	397440	178336
6553600	391024	178608
6684672	377008	178816
6815744	305936	177008
6946816	268720	195024
7077888	360720	201552
7208960	336528	184288
7340032	272400	128224
7471104	240784	98656
7602176	230544	100176
7733248	121872	84000
7864320	157984	147536
7995392	491856	469120
8126464	448256	405264
8257536	422048	371920
8388608	377728	278928
8650752	110944	16240
8912896	560752	502512
9175040	248608	247376
9437184	54896	54896
9699328	201984	201984
9961472	1142896	1142896
10223616	629616	629616
10485760	0	0
10747904	0	0
11010048	0	0
11272192	0	0
11534336	0	0
11796480	0	0
12058624	0	0
12320768	48	48
12582912	0	0
12845056	0	0
13107200	48	48
13369344	0	0
13631488	0	0
13893632	0	0
14155776	0	0
14417920	0	0
14680064	0	0
14942208	0	0
15204352	0	0
15466496	0	0
15728640	0	0
15990784	0	0
16252928	0	0
16515072	0	0
16777216	0	0
17301504	0	0
17825792	0	0
18350080	0	0
18874368	0	0
19398656	0	0
19922944	0	0
20447232	0	0
20971520	0	0
21495808	0	0
22020096	35024	35024
22544384	6784	6784
23068672	6656	6656
23592960	6640	6640
24117248	6624	6624
24641536	5200	5200
25165824	0	0
25690112	0	0
26214400	0	0
26738688	64	64
27262976	0	0
27787264	64	64
28311552	0	0
28835840	0	0
29360128	0	0
29884416	0	0
30408704	0	0
30932992	0	0
31457280	0	0
31981568	0	0
32505856	0	0
33030144	0	0
33554432	0	0
34603008	0	0
35651584	0	0
36700160	37552	37552
37748736	11376	11376
38797312	11552	11552
39845888	4512	4512
40894464	0	0
41943040	32	32
42991616	16	16
44040192	0	0
45088768	0	0
46137344	0	0
47185920	0	0
48234496	0	0
49283072	0	0
50331648	0	0
51380224	32848	32848
52428800	9520	9520
53477376	12128	12128
54525952	11904	11904
55574528	624	624
56623104	0	0
57671680	144	144
58720256	0	0
59768832	0	0
60817408	0	0
61865984	0	0
62914560	0	0
63963136	0	0
65011712	0	0
66060288	0	0
67108864	46576	46576
69206016	19760	19760
71303168	64	64
73400320	48	48
75497472	0	0
77594624	0	0
79691776	0	0
81788928	44944	44944
83886080	20944	20944
85983232	64	64
88080384	160	160
90177536	0	0
92274688	0	0
94371840	0	0
96468992	40928	40928
98566144	24672	24672
100663296	2304	2304
102760448	112	112
104857600	0	0
106954752	0	0
109051904	0	0
111149056	35024	35024
113246208	23408	23408
115343360	7824	7824
117440512	320	320
119537664	0	0
121634816	0	0
123731968	0	0
125829120	13408	13408
127926272	37184	37184
130023424	14448	14448
132120576	192	192
134217728	0	0
138412032	0	0
142606336	67120	67120
146800640	112	112
150994944	0	0
155189248	42768	42768
159383552	23888	23888
163577856	64	64
167772160	0	0
171966464	62640	62640
176160768	5072	5072
180355072	0	0
184549376	15936	15936
188743680	50240	50240
192937984	112	112
197132288	0	0
201326592	0	0
205520896	0	0
209715200	0	0
213909504	0	0
218103808	0	0
222298112	0	0
226492416	0	0
230686720	0	0
234881024	0	0
239075328	7072	7072
243269632	81152	81152
247463936	192960	192960
251658240	205872	205872
255852544	176928	176928
260046848	199520	199520
264241152	163360	163360
268435456	87296	87296
276824064	0	0
285212672	0	0
293601280	0	0
301989888	0	0
310378496	0	0
318767104	0	0
327155712	0	0
335544320	0	0
343932928	0	0
352321536	0	0
360710144	0	0
369098752	0	0
377487360	0	0
385875968	0	0
394264576	0	0
402653184	0	0
411041792	0	0
419430400	0	0
427819008	0	0
436207616	0	0
444596224	0	0
452984832	0	0
461373440	0	0
469762048	0	0
478150656	0	0
486539264	0	0
494927872	0	0
503316480	0	0
511705088	0	0
520093696	0	0
528482304	0	0
536870912	0	0
553648128	0	0
570425344	0	0
587202560	0	0
603979776	0	0
620756992	0	0
637534208	0	0
654311424	0	0
671088640	0	0
687865856	0	0
704643072	0	0
721420288	0	0
738197504	0	0
754974720	0	0
771751936	0	0
788529152	0	0
805306368	0	0
822083584	0	0
838860800	0	0
855638016	0	0
872415232	0	0
889192448	0	0
905969664	0	0
922746880	0	0
939524096	0	0
956301312	0	0
973078528	0	0
989855744	0	0
1006632960	0	0
1023410176	0	0
1040187392	0	0
1056964608	0	0
1073741824	0	0
1107296256	0	0
1140850688	0	0
1174405120	0	0
1207959552	0	0
1241513984	0	0
1275068416	0	0
1308622848	0	0
1342177280	0	0
1375731712	0	0
1409286144	0	0
1442840576	0	0
1476395008	0	0
1509949440	0	0
1543503872	0	0
1577058304	0	0
1610612736	0	0
1644167168	0	0
1677721600	0	0
1711276032	0	0
1744830464	0	0
1778384896	0	0
1811939328	0	0
1845493760	0	0
1879048192	0	0
1912602624	0	0
1946157056	0	0
1979711488	0	0
2013265920	0	0
2046820352	0	0
2080374784	0	0
2113929216	0	0
2147483648	0	0
2214592512	0	0
2281701376	0	0
2348810240	0	0
2415919104	0	0
2483027968	0	0
2550136832	0	0
2617245696	0	0
2684354560	0	0
2751463424	0	0
2818572288	0	0
2885681152	0	0
2952790016	0	0
3019898880	0	0
3087007744	0	0
3154116608	0	0
3221225472	0	0
3288334336	0	0
3355443200	0	0
3422552064	0	0
3489660928	0	0
3556769792	0	0
3623878656	0	0
3690987520	0	0
3758096384	0	0
3825205248	0	0
3892314112	0	0
3959422976	0	0
4026531840	0	0
4093640704	0	0
4160749568	0	0
4227858432	0	0
~~~~~~~~~~Reuse Distance Profiler output end~~~~~~~~~~

DRAM Statistics
 CHANNEL 0
 RQ ROW_BUFFER_HIT:      89434  ROW_BUFFER_MISS:   35671704
 DBUS AVG_CONGESTED_CYCLE:    3.97896
 WQ ROW_BUFFER_HIT:     297878  ROW_BUFFER_MISS:    8352632  FULL:          0


CPU 0 Branch Prediction Accuracy: 99.645% MPKI: 0.153467 Average ROB Occupancy at Mispredict: 300.642
Branch type MPKI
BRANCH_DIRECT_JUMP: 1.4e-05
BRANCH_INDIRECT: 0
BRANCH_CONDITIONAL: 0.153418
BRANCH_DIRECT_CALL: 1.73333e-05
BRANCH_INDIRECT_CALL: 0
BRANCH_RETURN: 1.73333e-05

