
*** ChampSim Multicore Out-of-Order Simulator ***

Warmup Instructions: 500000000
Simulation Instructions: 1500000000
Number of CPUs: 1
Off-chip DRAM Size: 4 GiB Channels: 1 Width: 64-bit Data Rate: 3200 MT/s

VirtualMemory physical capacity: 8588881920 num_ppages: 2096895
VirtualMemory page size: 4096 log2_page_size: 12

CPU 0 runs traces/654.roms_s-1613B.champsimtrace.xz
CPU 0 Bimodal branch predictor
Basic BTB sets: 1024 ways: 8 indirect buffer size: 4096 RAS size: 64
Initializing LRU.
Initializing LRU.
Initializing LRU.
Initializing LRU.
Initializing rdLRU.
Initializing LRU.
Initializing LRU.
Heartbeat CPU 0 instructions: 10000003 cycles: 2511524 heartbeat IPC: 3.98165 cumulative IPC: 3.98165 (Simulation time: 0 hr 0 min 44 sec) 
Heartbeat CPU 0 instructions: 20000003 cycles: 5022979 heartbeat IPC: 3.98176 cumulative IPC: 3.9817 (Simulation time: 0 hr 1 min 39 sec) 
Heartbeat CPU 0 instructions: 30000002 cycles: 7534428 heartbeat IPC: 3.98176 cumulative IPC: 3.98172 (Simulation time: 0 hr 2 min 28 sec) 
Heartbeat CPU 0 instructions: 40000002 cycles: 10046049 heartbeat IPC: 3.98149 cumulative IPC: 3.98167 (Simulation time: 0 hr 3 min 20 sec) 
Heartbeat CPU 0 instructions: 50000000 cycles: 12750206 heartbeat IPC: 3.69801 cumulative IPC: 3.92151 (Simulation time: 0 hr 4 min 17 sec) 
Heartbeat CPU 0 instructions: 60000001 cycles: 15261664 heartbeat IPC: 3.98175 cumulative IPC: 3.93142 (Simulation time: 0 hr 5 min 9 sec) 
Heartbeat CPU 0 instructions: 70000002 cycles: 17773116 heartbeat IPC: 3.98176 cumulative IPC: 3.93853 (Simulation time: 0 hr 5 min 57 sec) 
Heartbeat CPU 0 instructions: 80000001 cycles: 20284565 heartbeat IPC: 3.98176 cumulative IPC: 3.94389 (Simulation time: 0 hr 6 min 47 sec) 
Heartbeat CPU 0 instructions: 90000003 cycles: 22796185 heartbeat IPC: 3.98149 cumulative IPC: 3.94803 (Simulation time: 0 hr 7 min 40 sec) 
Heartbeat CPU 0 instructions: 100000003 cycles: 25307636 heartbeat IPC: 3.98176 cumulative IPC: 3.95138 (Simulation time: 0 hr 8 min 29 sec) 
Heartbeat CPU 0 instructions: 110000003 cycles: 27819092 heartbeat IPC: 3.98175 cumulative IPC: 3.95412 (Simulation time: 0 hr 9 min 23 sec) 
Heartbeat CPU 0 instructions: 120000002 cycles: 30523191 heartbeat IPC: 3.69809 cumulative IPC: 3.93144 (Simulation time: 0 hr 10 min 24 sec) 
Heartbeat CPU 0 instructions: 130000002 cycles: 33034801 heartbeat IPC: 3.98151 cumulative IPC: 3.93524 (Simulation time: 0 hr 11 min 17 sec) 
Heartbeat CPU 0 instructions: 140000001 cycles: 35546258 heartbeat IPC: 3.98175 cumulative IPC: 3.93853 (Simulation time: 0 hr 12 min 7 sec) 
Heartbeat CPU 0 instructions: 150000001 cycles: 38057706 heartbeat IPC: 3.98177 cumulative IPC: 3.94138 (Simulation time: 0 hr 13 min 0 sec) 
Heartbeat CPU 0 instructions: 160000000 cycles: 40569314 heartbeat IPC: 3.98151 cumulative IPC: 3.94387 (Simulation time: 0 hr 13 min 49 sec) 
Heartbeat CPU 0 instructions: 170000001 cycles: 43080777 heartbeat IPC: 3.98174 cumulative IPC: 3.94608 (Simulation time: 0 hr 14 min 42 sec) 
Heartbeat CPU 0 instructions: 180000003 cycles: 45592233 heartbeat IPC: 3.98175 cumulative IPC: 3.94804 (Simulation time: 0 hr 15 min 35 sec) 
Heartbeat CPU 0 instructions: 190000003 cycles: 48103689 heartbeat IPC: 3.98175 cumulative IPC: 3.9498 (Simulation time: 0 hr 16 min 29 sec) 
Heartbeat CPU 0 instructions: 200000000 cycles: 50807940 heartbeat IPC: 3.69788 cumulative IPC: 3.93639 (Simulation time: 0 hr 17 min 32 sec) 
Heartbeat CPU 0 instructions: 210000000 cycles: 53319395 heartbeat IPC: 3.98176 cumulative IPC: 3.93853 (Simulation time: 0 hr 18 min 23 sec) 
Heartbeat CPU 0 instructions: 220000001 cycles: 55830847 heartbeat IPC: 3.98176 cumulative IPC: 3.94047 (Simulation time: 0 hr 19 min 14 sec) 
Heartbeat CPU 0 instructions: 230000002 cycles: 58342300 heartbeat IPC: 3.98176 cumulative IPC: 3.94225 (Simulation time: 0 hr 20 min 4 sec) 
Heartbeat CPU 0 instructions: 240000001 cycles: 60853916 heartbeat IPC: 3.9815 cumulative IPC: 3.94387 (Simulation time: 0 hr 20 min 51 sec) 
Heartbeat CPU 0 instructions: 250000000 cycles: 63365365 heartbeat IPC: 3.98176 cumulative IPC: 3.94537 (Simulation time: 0 hr 21 min 41 sec) 
Heartbeat CPU 0 instructions: 260000000 cycles: 65876823 heartbeat IPC: 3.98175 cumulative IPC: 3.94676 (Simulation time: 0 hr 22 min 31 sec) 
Heartbeat CPU 0 instructions: 270000000 cycles: 68580919 heartbeat IPC: 3.69809 cumulative IPC: 3.93696 (Simulation time: 0 hr 23 min 29 sec) 
Heartbeat CPU 0 instructions: 280000000 cycles: 71092535 heartbeat IPC: 3.9815 cumulative IPC: 3.93853 (Simulation time: 0 hr 24 min 19 sec) 
Heartbeat CPU 0 instructions: 290000002 cycles: 73603987 heartbeat IPC: 3.98176 cumulative IPC: 3.94 (Simulation time: 0 hr 25 min 8 sec) 
Heartbeat CPU 0 instructions: 300000002 cycles: 76115437 heartbeat IPC: 3.98176 cumulative IPC: 3.94138 (Simulation time: 0 hr 26 min 0 sec) 
Heartbeat CPU 0 instructions: 310000001 cycles: 78626895 heartbeat IPC: 3.98175 cumulative IPC: 3.94267 (Simulation time: 0 hr 26 min 51 sec) 
Heartbeat CPU 0 instructions: 320000000 cycles: 81138507 heartbeat IPC: 3.98151 cumulative IPC: 3.94387 (Simulation time: 0 hr 27 min 42 sec) 
Heartbeat CPU 0 instructions: 330000003 cycles: 83649961 heartbeat IPC: 3.98176 cumulative IPC: 3.94501 (Simulation time: 0 hr 28 min 33 sec) 
Heartbeat CPU 0 instructions: 340000000 cycles: 86354924 heartbeat IPC: 3.69691 cumulative IPC: 3.93724 (Simulation time: 0 hr 29 min 34 sec) 
Heartbeat CPU 0 instructions: 350000001 cycles: 88865509 heartbeat IPC: 3.98314 cumulative IPC: 3.93854 (Simulation time: 0 hr 30 min 24 sec) 
Heartbeat CPU 0 instructions: 360000003 cycles: 91377020 heartbeat IPC: 3.98167 cumulative IPC: 3.93972 (Simulation time: 0 hr 31 min 16 sec) 
Heartbeat CPU 0 instructions: 370000003 cycles: 93888577 heartbeat IPC: 3.98159 cumulative IPC: 3.94084 (Simulation time: 0 hr 32 min 5 sec) 
Heartbeat CPU 0 instructions: 380000001 cycles: 96400031 heartbeat IPC: 3.98176 cumulative IPC: 3.94191 (Simulation time: 0 hr 32 min 56 sec) 
Heartbeat CPU 0 instructions: 390000001 cycles: 98911487 heartbeat IPC: 3.98175 cumulative IPC: 3.94292 (Simulation time: 0 hr 33 min 47 sec) 
Heartbeat CPU 0 instructions: 400000001 cycles: 101423097 heartbeat IPC: 3.98151 cumulative IPC: 3.94387 (Simulation time: 0 hr 34 min 41 sec) 
Heartbeat CPU 0 instructions: 410000003 cycles: 103934556 heartbeat IPC: 3.98175 cumulative IPC: 3.94479 (Simulation time: 0 hr 35 min 32 sec) 
Heartbeat CPU 0 instructions: 420000001 cycles: 106638651 heartbeat IPC: 3.69809 cumulative IPC: 3.93853 (Simulation time: 0 hr 36 min 16 sec) 
Heartbeat CPU 0 instructions: 430000002 cycles: 109150107 heartbeat IPC: 3.98175 cumulative IPC: 3.93953 (Simulation time: 0 hr 37 min 5 sec) 
Heartbeat CPU 0 instructions: 440000001 cycles: 111661719 heartbeat IPC: 3.98151 cumulative IPC: 3.94047 (Simulation time: 0 hr 37 min 54 sec) 
Heartbeat CPU 0 instructions: 450000000 cycles: 114173168 heartbeat IPC: 3.98176 cumulative IPC: 3.94138 (Simulation time: 0 hr 38 min 43 sec) 
Heartbeat CPU 0 instructions: 460000001 cycles: 116684627 heartbeat IPC: 3.98175 cumulative IPC: 3.94225 (Simulation time: 0 hr 39 min 35 sec) 
Heartbeat CPU 0 instructions: 470000001 cycles: 119196078 heartbeat IPC: 3.98176 cumulative IPC: 3.94308 (Simulation time: 0 hr 40 min 25 sec) 
Heartbeat CPU 0 instructions: 480000000 cycles: 121707694 heartbeat IPC: 3.9815 cumulative IPC: 3.94388 (Simulation time: 0 hr 41 min 8 sec) 
Heartbeat CPU 0 instructions: 490000001 cycles: 124411792 heartbeat IPC: 3.69809 cumulative IPC: 3.93853 (Simulation time: 0 hr 42 min 0 sec) 
Heartbeat CPU 0 instructions: 500000001 cycles: 126923242 heartbeat IPC: 3.98176 cumulative IPC: 3.93939 (Simulation time: 0 hr 42 min 37 sec) 

Warmup complete CPU 0 instructions: 500000001 cycles: 126923242 (Simulation time: 0 hr 42 min 37 sec) 

Heartbeat CPU 0 instructions: 510000000 cycles: 133921109 heartbeat IPC: 1.42901 cumulative IPC: 1.42901 (Simulation time: 0 hr 44 min 19 sec) 
Heartbeat CPU 0 instructions: 520000002 cycles: 140918989 heartbeat IPC: 1.429 cumulative IPC: 1.42901 (Simulation time: 0 hr 46 min 2 sec) 
Heartbeat CPU 0 instructions: 530000001 cycles: 147912428 heartbeat IPC: 1.42991 cumulative IPC: 1.42931 (Simulation time: 0 hr 47 min 53 sec) 
Heartbeat CPU 0 instructions: 540000000 cycles: 154911727 heartbeat IPC: 1.42871 cumulative IPC: 1.42916 (Simulation time: 0 hr 49 min 40 sec) 
Heartbeat CPU 0 instructions: 550000003 cycles: 161901781 heartbeat IPC: 1.4306 cumulative IPC: 1.42945 (Simulation time: 0 hr 51 min 21 sec) 
Heartbeat CPU 0 instructions: 560000000 cycles: 168904282 heartbeat IPC: 1.42806 cumulative IPC: 1.42922 (Simulation time: 0 hr 52 min 58 sec) 
Heartbeat CPU 0 instructions: 570000003 cycles: 190050943 heartbeat IPC: 0.472888 cumulative IPC: 1.10886 (Simulation time: 0 hr 56 min 7 sec) 
Heartbeat CPU 0 instructions: 580000001 cycles: 197044467 heartbeat IPC: 1.42989 cumulative IPC: 1.14088 (Simulation time: 0 hr 57 min 37 sec) 
Heartbeat CPU 0 instructions: 590000003 cycles: 204045579 heartbeat IPC: 1.42834 cumulative IPC: 1.16698 (Simulation time: 0 hr 59 min 8 sec) 
Heartbeat CPU 0 instructions: 600000000 cycles: 211037424 heartbeat IPC: 1.43024 cumulative IPC: 1.18886 (Simulation time: 1 hr 0 min 50 sec) 
Heartbeat CPU 0 instructions: 610000002 cycles: 218038176 heartbeat IPC: 1.42842 cumulative IPC: 1.20727 (Simulation time: 1 hr 2 min 24 sec) 
Heartbeat CPU 0 instructions: 620000000 cycles: 225026770 heartbeat IPC: 1.4309 cumulative IPC: 1.2232 (Simulation time: 1 hr 4 min 4 sec) 
Heartbeat CPU 0 instructions: 630000001 cycles: 232024051 heartbeat IPC: 1.42913 cumulative IPC: 1.23691 (Simulation time: 1 hr 5 min 45 sec) 
Heartbeat CPU 0 instructions: 640000004 cycles: 252528545 heartbeat IPC: 0.487698 cumulative IPC: 1.1146 (Simulation time: 1 hr 9 min 8 sec) 
Heartbeat CPU 0 instructions: 650000003 cycles: 259515686 heartbeat IPC: 1.4312 cumulative IPC: 1.13129 (Simulation time: 1 hr 10 min 47 sec) 
Heartbeat CPU 0 instructions: 660000004 cycles: 266518044 heartbeat IPC: 1.42809 cumulative IPC: 1.14617 (Simulation time: 1 hr 12 min 2 sec) 
Heartbeat CPU 0 instructions: 670000001 cycles: 273510084 heartbeat IPC: 1.4302 cumulative IPC: 1.15972 (Simulation time: 1 hr 13 min 38 sec) 
Heartbeat CPU 0 instructions: 680000003 cycles: 280506789 heartbeat IPC: 1.42924 cumulative IPC: 1.172 (Simulation time: 1 hr 15 min 12 sec) 
Heartbeat CPU 0 instructions: 690000004 cycles: 287502316 heartbeat IPC: 1.42948 cumulative IPC: 1.18322 (Simulation time: 1 hr 16 min 35 sec) 
Heartbeat CPU 0 instructions: 700000001 cycles: 294493793 heartbeat IPC: 1.43031 cumulative IPC: 1.19353 (Simulation time: 1 hr 17 min 59 sec) 
Heartbeat CPU 0 instructions: 710000000 cycles: 305874077 heartbeat IPC: 0.878713 cumulative IPC: 1.17351 (Simulation time: 1 hr 19 min 52 sec) 
Heartbeat CPU 0 instructions: 720000001 cycles: 330460439 heartbeat IPC: 0.40673 cumulative IPC: 1.08088 (Simulation time: 1 hr 23 min 56 sec) 
Heartbeat CPU 0 instructions: 730000000 cycles: 348699071 heartbeat IPC: 0.548287 cumulative IPC: 1.03708 (Simulation time: 1 hr 27 min 23 sec) 
Heartbeat CPU 0 instructions: 740000001 cycles: 365989502 heartbeat IPC: 0.578355 cumulative IPC: 1.00391 (Simulation time: 1 hr 31 min 12 sec) 
Heartbeat CPU 0 instructions: 750000000 cycles: 384044852 heartbeat IPC: 0.553852 cumulative IPC: 0.972303 (Simulation time: 1 hr 35 min 11 sec) 
Heartbeat CPU 0 instructions: 760000001 cycles: 400718181 heartbeat IPC: 0.59976 cumulative IPC: 0.949616 (Simulation time: 1 hr 38 min 17 sec) 
Heartbeat CPU 0 instructions: 770000001 cycles: 414386842 heartbeat IPC: 0.731601 cumulative IPC: 0.939249 (Simulation time: 1 hr 41 min 15 sec) 
Heartbeat CPU 0 instructions: 780000000 cycles: 437560185 heartbeat IPC: 0.43153 cumulative IPC: 0.901374 (Simulation time: 1 hr 45 min 31 sec) 
Heartbeat CPU 0 instructions: 790000000 cycles: 455162545 heartbeat IPC: 0.568106 cumulative IPC: 0.883502 (Simulation time: 1 hr 48 min 35 sec) 
Heartbeat CPU 0 instructions: 800000000 cycles: 467726929 heartbeat IPC: 0.795901 cumulative IPC: 0.880272 (Simulation time: 1 hr 51 min 32 sec) 
Heartbeat CPU 0 instructions: 810000001 cycles: 488275483 heartbeat IPC: 0.486652 cumulative IPC: 0.857889 (Simulation time: 1 hr 56 min 6 sec) 
Heartbeat CPU 0 instructions: 820000001 cycles: 501306383 heartbeat IPC: 0.767407 cumulative IPC: 0.854739 (Simulation time: 1 hr 58 min 34 sec) 
Heartbeat CPU 0 instructions: 830000002 cycles: 516094471 heartbeat IPC: 0.67622 cumulative IPC: 0.847956 (Simulation time: 2 hr 1 min 22 sec) 
Heartbeat CPU 0 instructions: 840000000 cycles: 534577977 heartbeat IPC: 0.541023 cumulative IPC: 0.834039 (Simulation time: 2 hr 5 min 51 sec) 
Heartbeat CPU 0 instructions: 850000003 cycles: 548261139 heartbeat IPC: 0.730825 cumulative IPC: 0.830687 (Simulation time: 2 hr 8 min 33 sec) 
Heartbeat CPU 0 instructions: 860000002 cycles: 564268286 heartbeat IPC: 0.624721 cumulative IPC: 0.823149 (Simulation time: 2 hr 12 min 4 sec) 
Heartbeat CPU 0 instructions: 870000004 cycles: 584364333 heartbeat IPC: 0.49761 cumulative IPC: 0.808847 (Simulation time: 2 hr 16 min 13 sec) 
Heartbeat CPU 0 instructions: 880000000 cycles: 601015224 heartbeat IPC: 0.600568 cumulative IPC: 0.801532 (Simulation time: 2 hr 19 min 46 sec) 
Heartbeat CPU 0 instructions: 890000003 cycles: 617421999 heartbeat IPC: 0.609504 cumulative IPC: 0.795109 (Simulation time: 2 hr 22 min 52 sec) 
Heartbeat CPU 0 instructions: 900000004 cycles: 633100813 heartbeat IPC: 0.637803 cumulative IPC: 0.790237 (Simulation time: 2 hr 25 min 58 sec) 
Heartbeat CPU 0 instructions: 910000004 cycles: 653275032 heartbeat IPC: 0.495682 cumulative IPC: 0.778947 (Simulation time: 2 hr 28 min 59 sec) 
Heartbeat CPU 0 instructions: 920000000 cycles: 669532706 heartbeat IPC: 0.615094 cumulative IPC: 0.774037 (Simulation time: 2 hr 31 min 10 sec) 
Heartbeat CPU 0 instructions: 930000003 cycles: 683959588 heartbeat IPC: 0.693151 cumulative IPC: 0.771942 (Simulation time: 2 hr 34 min 2 sec) 
Heartbeat CPU 0 instructions: 940000003 cycles: 706956815 heartbeat IPC: 0.434835 cumulative IPC: 0.758577 (Simulation time: 2 hr 37 min 36 sec) 
Heartbeat CPU 0 instructions: 950000002 cycles: 724287044 heartbeat IPC: 0.577026 cumulative IPC: 0.75331 (Simulation time: 2 hr 41 min 28 sec) 
Heartbeat CPU 0 instructions: 960000002 cycles: 735428426 heartbeat IPC: 0.897555 cumulative IPC: 0.755951 (Simulation time: 2 hr 44 min 10 sec) 
Heartbeat CPU 0 instructions: 970000001 cycles: 757113066 heartbeat IPC: 0.461156 cumulative IPC: 0.745807 (Simulation time: 2 hr 47 min 36 sec) 
Heartbeat CPU 0 instructions: 980000002 cycles: 770966267 heartbeat IPC: 0.721855 cumulative IPC: 0.745292 (Simulation time: 2 hr 49 min 24 sec) 
Heartbeat CPU 0 instructions: 990000003 cycles: 786243223 heartbeat IPC: 0.654581 cumulative IPC: 0.74319 (Simulation time: 2 hr 51 min 29 sec) 
Heartbeat CPU 0 instructions: 1000000004 cycles: 805591066 heartbeat IPC: 0.516854 cumulative IPC: 0.736737 (Simulation time: 2 hr 54 min 6 sec) 
Heartbeat CPU 0 instructions: 1010000003 cycles: 823729391 heartbeat IPC: 0.551319 cumulative IPC: 0.731911 (Simulation time: 2 hr 56 min 11 sec) 
Heartbeat CPU 0 instructions: 1020000002 cycles: 839780298 heartbeat IPC: 0.623018 cumulative IPC: 0.729459 (Simulation time: 2 hr 58 min 10 sec) 
Heartbeat CPU 0 instructions: 1030000002 cycles: 855702363 heartbeat IPC: 0.628059 cumulative IPC: 0.727244 (Simulation time: 3 hr 0 min 20 sec) 
Heartbeat CPU 0 instructions: 1040000002 cycles: 871694016 heartbeat IPC: 0.625326 cumulative IPC: 0.725055 (Simulation time: 3 hr 2 min 22 sec) 
Heartbeat CPU 0 instructions: 1050000003 cycles: 888325841 heartbeat IPC: 0.601257 cumulative IPC: 0.722351 (Simulation time: 3 hr 4 min 25 sec) 
Heartbeat CPU 0 instructions: 1060000001 cycles: 903789068 heartbeat IPC: 0.646695 cumulative IPC: 0.720845 (Simulation time: 3 hr 6 min 27 sec) 
Heartbeat CPU 0 instructions: 1070000002 cycles: 922333047 heartbeat IPC: 0.539259 cumulative IPC: 0.716612 (Simulation time: 3 hr 8 min 50 sec) 
Heartbeat CPU 0 instructions: 1080000001 cycles: 941533174 heartbeat IPC: 0.52083 cumulative IPC: 0.711997 (Simulation time: 3 hr 11 min 7 sec) 
Heartbeat CPU 0 instructions: 1090000001 cycles: 952331656 heartbeat IPC: 0.926056 cumulative IPC: 0.714798 (Simulation time: 3 hr 12 min 37 sec) 
Heartbeat CPU 0 instructions: 1100000001 cycles: 975182726 heartbeat IPC: 0.437616 cumulative IPC: 0.707331 (Simulation time: 3 hr 15 min 31 sec) 
Heartbeat CPU 0 instructions: 1110000001 cycles: 989157670 heartbeat IPC: 0.715566 cumulative IPC: 0.707464 (Simulation time: 3 hr 17 min 15 sec) 
Heartbeat CPU 0 instructions: 1120000003 cycles: 1003971413 heartbeat IPC: 0.675049 cumulative IPC: 0.706917 (Simulation time: 3 hr 19 min 8 sec) 
Heartbeat CPU 0 instructions: 1130000001 cycles: 1029098667 heartbeat IPC: 0.397974 cumulative IPC: 0.698312 (Simulation time: 3 hr 22 min 19 sec) 
Heartbeat CPU 0 instructions: 1140000000 cycles: 1042368944 heartbeat IPC: 0.753564 cumulative IPC: 0.699113 (Simulation time: 3 hr 24 min 0 sec) 
Heartbeat CPU 0 instructions: 1150000000 cycles: 1058591888 heartbeat IPC: 0.616411 cumulative IPC: 0.697673 (Simulation time: 3 hr 26 min 4 sec) 
Heartbeat CPU 0 instructions: 1160000004 cycles: 1081445316 heartbeat IPC: 0.437571 cumulative IPC: 0.691446 (Simulation time: 3 hr 28 min 59 sec) 
Heartbeat CPU 0 instructions: 1170000001 cycles: 1095623656 heartbeat IPC: 0.705301 cumulative IPC: 0.691648 (Simulation time: 3 hr 30 min 47 sec) 
Heartbeat CPU 0 instructions: 1180000001 cycles: 1114099657 heartbeat IPC: 0.541243 cumulative IPC: 0.688833 (Simulation time: 3 hr 33 min 3 sec) 
Heartbeat CPU 0 instructions: 1190000000 cycles: 1130490717 heartbeat IPC: 0.610089 cumulative IPC: 0.687547 (Simulation time: 3 hr 35 min 16 sec) 
Heartbeat CPU 0 instructions: 1200000004 cycles: 1146867514 heartbeat IPC: 0.61062 cumulative IPC: 0.686312 (Simulation time: 3 hr 37 min 23 sec) 
Heartbeat CPU 0 instructions: 1210000003 cycles: 1162939394 heartbeat IPC: 0.622205 cumulative IPC: 0.685318 (Simulation time: 3 hr 39 min 25 sec) 
Heartbeat CPU 0 instructions: 1220000002 cycles: 1174646226 heartbeat IPC: 0.854202 cumulative IPC: 0.687205 (Simulation time: 3 hr 41 min 3 sec) 
Heartbeat CPU 0 instructions: 1230000000 cycles: 1195912443 heartbeat IPC: 0.470229 cumulative IPC: 0.682888 (Simulation time: 3 hr 43 min 43 sec) 
Heartbeat CPU 0 instructions: 1240000002 cycles: 1213637982 heartbeat IPC: 0.564158 cumulative IPC: 0.680951 (Simulation time: 3 hr 45 min 50 sec) 
Heartbeat CPU 0 instructions: 1250000000 cycles: 1225005518 heartbeat IPC: 0.879698 cumulative IPC: 0.683009 (Simulation time: 3 hr 47 min 19 sec) 
Heartbeat CPU 0 instructions: 1260000002 cycles: 1243762633 heartbeat IPC: 0.533131 cumulative IPC: 0.680492 (Simulation time: 3 hr 49 min 52 sec) 
Heartbeat CPU 0 instructions: 1270000000 cycles: 1256856491 heartbeat IPC: 0.763717 cumulative IPC: 0.681456 (Simulation time: 3 hr 51 min 32 sec) 
Heartbeat CPU 0 instructions: 1280000002 cycles: 1271876399 heartbeat IPC: 0.665783 cumulative IPC: 0.681251 (Simulation time: 3 hr 53 min 24 sec) 
Heartbeat CPU 0 instructions: 1290000000 cycles: 1296723203 heartbeat IPC: 0.402466 cumulative IPC: 0.675329 (Simulation time: 3 hr 56 min 32 sec) 
Heartbeat CPU 0 instructions: 1300000000 cycles: 1310226668 heartbeat IPC: 0.740551 cumulative IPC: 0.676073 (Simulation time: 3 hr 58 min 13 sec) 
Heartbeat CPU 0 instructions: 1310000004 cycles: 1327942889 heartbeat IPC: 0.564455 cumulative IPC: 0.674427 (Simulation time: 4 hr 0 min 26 sec) 
Heartbeat CPU 0 instructions: 1320000003 cycles: 1350533797 heartbeat IPC: 0.442656 cumulative IPC: 0.670148 (Simulation time: 4 hr 3 min 22 sec) 
Heartbeat CPU 0 instructions: 1330000000 cycles: 1366756735 heartbeat IPC: 0.616411 cumulative IPC: 0.669445 (Simulation time: 4 hr 5 min 25 sec) 
Heartbeat CPU 0 instructions: 1340000004 cycles: 1383047476 heartbeat IPC: 0.613846 cumulative IPC: 0.668724 (Simulation time: 4 hr 7 min 30 sec) 
Heartbeat CPU 0 instructions: 1350000002 cycles: 1399701313 heartbeat IPC: 0.600462 cumulative IPC: 0.66783 (Simulation time: 4 hr 9 min 42 sec) 
Heartbeat CPU 0 instructions: 1360000004 cycles: 1420552047 heartbeat IPC: 0.4796 cumulative IPC: 0.664797 (Simulation time: 4 hr 12 min 18 sec) 
Heartbeat CPU 0 instructions: 1370000000 cycles: 1437327459 heartbeat IPC: 0.59611 cumulative IPC: 0.663917 (Simulation time: 4 hr 14 min 27 sec) 
Heartbeat CPU 0 instructions: 1380000003 cycles: 1453348429 heartbeat IPC: 0.624182 cumulative IPC: 0.663437 (Simulation time: 4 hr 16 min 29 sec) 
Heartbeat CPU 0 instructions: 1390000004 cycles: 1473416977 heartbeat IPC: 0.498292 cumulative IPC: 0.660976 (Simulation time: 4 hr 19 min 4 sec) 
Heartbeat CPU 0 instructions: 1400000001 cycles: 1491380930 heartbeat IPC: 0.55667 cumulative IPC: 0.659603 (Simulation time: 4 hr 21 min 13 sec) 
Heartbeat CPU 0 instructions: 1410000002 cycles: 1502992121 heartbeat IPC: 0.861238 cumulative IPC: 0.661304 (Simulation time: 4 hr 22 min 45 sec) 
Heartbeat CPU 0 instructions: 1420000001 cycles: 1522427660 heartbeat IPC: 0.514521 cumulative IPC: 0.65926 (Simulation time: 4 hr 25 min 22 sec) 
Heartbeat CPU 0 instructions: 1430000002 cycles: 1535193372 heartbeat IPC: 0.783349 cumulative IPC: 0.660385 (Simulation time: 4 hr 26 min 59 sec) 
Heartbeat CPU 0 instructions: 1440000004 cycles: 1549694974 heartbeat IPC: 0.689579 cumulative IPC: 0.660682 (Simulation time: 4 hr 28 min 52 sec) 
Heartbeat CPU 0 instructions: 1450000004 cycles: 1569643407 heartbeat IPC: 0.501293 cumulative IPC: 0.658478 (Simulation time: 4 hr 31 min 32 sec) 
Heartbeat CPU 0 instructions: 1460000000 cycles: 1588030208 heartbeat IPC: 0.543868 cumulative IPC: 0.657036 (Simulation time: 4 hr 33 min 36 sec) 
Heartbeat CPU 0 instructions: 1470000001 cycles: 1604077927 heartbeat IPC: 0.623142 cumulative IPC: 0.656668 (Simulation time: 4 hr 35 min 35 sec) 
Heartbeat CPU 0 instructions: 1480000001 cycles: 1619001613 heartbeat IPC: 0.670076 cumulative IPC: 0.656802 (Simulation time: 4 hr 37 min 39 sec) 
Heartbeat CPU 0 instructions: 1490000001 cycles: 1634799201 heartbeat IPC: 0.633008 cumulative IPC: 0.656553 (Simulation time: 4 hr 39 min 39 sec) 
Heartbeat CPU 0 instructions: 1500000004 cycles: 1651261711 heartbeat IPC: 0.607441 cumulative IPC: 0.656022 (Simulation time: 4 hr 41 min 42 sec) 
Heartbeat CPU 0 instructions: 1510000001 cycles: 1669006663 heartbeat IPC: 0.56354 cumulative IPC: 0.654958 (Simulation time: 4 hr 43 min 54 sec) 
Heartbeat CPU 0 instructions: 1520000002 cycles: 1688862192 heartbeat IPC: 0.503638 cumulative IPC: 0.653035 (Simulation time: 4 hr 46 min 22 sec) 
Heartbeat CPU 0 instructions: 1530000003 cycles: 1708092313 heartbeat IPC: 0.520018 cumulative IPC: 0.651417 (Simulation time: 4 hr 48 min 41 sec) 
Heartbeat CPU 0 instructions: 1540000001 cycles: 1720342303 heartbeat IPC: 0.816327 cumulative IPC: 0.652685 (Simulation time: 4 hr 50 min 20 sec) 
Heartbeat CPU 0 instructions: 1550000000 cycles: 1743827472 heartbeat IPC: 0.425801 cumulative IPC: 0.649389 (Simulation time: 4 hr 53 min 19 sec) 
Heartbeat CPU 0 instructions: 1560000004 cycles: 1758002272 heartbeat IPC: 0.705478 cumulative IPC: 0.649877 (Simulation time: 4 hr 55 min 7 sec) 
Heartbeat CPU 0 instructions: 1570000004 cycles: 1772146310 heartbeat IPC: 0.707012 cumulative IPC: 0.650368 (Simulation time: 4 hr 56 min 56 sec) 
Heartbeat CPU 0 instructions: 1580000002 cycles: 1796455793 heartbeat IPC: 0.411362 cumulative IPC: 0.646888 (Simulation time: 5 hr 0 min 3 sec) 
Heartbeat CPU 0 instructions: 1590000000 cycles: 1813973140 heartbeat IPC: 0.570863 cumulative IPC: 0.646098 (Simulation time: 5 hr 1 min 58 sec) 
Heartbeat CPU 0 instructions: 1600000003 cycles: 1830995515 heartbeat IPC: 0.587462 cumulative IPC: 0.645513 (Simulation time: 5 hr 4 min 4 sec) 
Heartbeat CPU 0 instructions: 1610000003 cycles: 1851270232 heartbeat IPC: 0.493225 cumulative IPC: 0.643722 (Simulation time: 5 hr 6 min 44 sec) 
Heartbeat CPU 0 instructions: 1620000000 cycles: 1865573182 heartbeat IPC: 0.699156 cumulative IPC: 0.644178 (Simulation time: 5 hr 8 min 32 sec) 
Heartbeat CPU 0 instructions: 1630000001 cycles: 1884097352 heartbeat IPC: 0.539835 cumulative IPC: 0.643078 (Simulation time: 5 hr 10 min 47 sec) 
Heartbeat CPU 0 instructions: 1640000000 cycles: 1900301895 heartbeat IPC: 0.617111 cumulative IPC: 0.642841 (Simulation time: 5 hr 12 min 56 sec) 
Heartbeat CPU 0 instructions: 1650000002 cycles: 1915867365 heartbeat IPC: 0.642448 cumulative IPC: 0.642837 (Simulation time: 5 hr 14 min 56 sec) 
Heartbeat CPU 0 instructions: 1660000002 cycles: 1932345449 heartbeat IPC: 0.606867 cumulative IPC: 0.642509 (Simulation time: 5 hr 16 min 59 sec) 
Heartbeat CPU 0 instructions: 1670000004 cycles: 1946010860 heartbeat IPC: 0.731775 cumulative IPC: 0.64318 (Simulation time: 5 hr 18 min 50 sec) 
Heartbeat CPU 0 instructions: 1680000004 cycles: 1965985536 heartbeat IPC: 0.500634 cumulative IPC: 0.641631 (Simulation time: 5 hr 21 min 22 sec) 
Heartbeat CPU 0 instructions: 1690000001 cycles: 1982507865 heartbeat IPC: 0.605241 cumulative IPC: 0.641307 (Simulation time: 5 hr 23 min 23 sec) 
Heartbeat CPU 0 instructions: 1700000004 cycles: 1993637411 heartbeat IPC: 0.89851 cumulative IPC: 0.642841 (Simulation time: 5 hr 24 min 53 sec) 
Heartbeat CPU 0 instructions: 1710000000 cycles: 2013624982 heartbeat IPC: 0.500311 cumulative IPC: 0.641331 (Simulation time: 5 hr 27 min 33 sec) 
Heartbeat CPU 0 instructions: 1720000001 cycles: 2026542499 heartbeat IPC: 0.774143 cumulative IPC: 0.642234 (Simulation time: 5 hr 29 min 7 sec) 
Heartbeat CPU 0 instructions: 1730000002 cycles: 2040693111 heartbeat IPC: 0.706683 cumulative IPC: 0.642711 (Simulation time: 5 hr 30 min 56 sec) 
Heartbeat CPU 0 instructions: 1740000001 cycles: 2066044846 heartbeat IPC: 0.39445 cumulative IPC: 0.639465 (Simulation time: 5 hr 34 min 5 sec) 
Heartbeat CPU 0 instructions: 1750000004 cycles: 2079579911 heartbeat IPC: 0.738822 cumulative IPC: 0.640154 (Simulation time: 5 hr 35 min 51 sec) 
Heartbeat CPU 0 instructions: 1760000004 cycles: 2097173964 heartbeat IPC: 0.568374 cumulative IPC: 0.639513 (Simulation time: 5 hr 38 min 3 sec) 
Heartbeat CPU 0 instructions: 1770000003 cycles: 2118010939 heartbeat IPC: 0.479916 cumulative IPC: 0.637842 (Simulation time: 5 hr 40 min 45 sec) 
Heartbeat CPU 0 instructions: 1780000003 cycles: 2133186982 heartbeat IPC: 0.658933 cumulative IPC: 0.638002 (Simulation time: 5 hr 42 min 40 sec) 
Heartbeat CPU 0 instructions: 1790000000 cycles: 2149339170 heartbeat IPC: 0.619111 cumulative IPC: 0.637851 (Simulation time: 5 hr 44 min 42 sec) 
Heartbeat CPU 0 instructions: 1800000003 cycles: 2165650135 heartbeat IPC: 0.613085 cumulative IPC: 0.637653 (Simulation time: 5 hr 46 min 53 sec) 
Heartbeat CPU 0 instructions: 1810000001 cycles: 2187628285 heartbeat IPC: 0.454997 cumulative IPC: 0.635705 (Simulation time: 5 hr 49 min 30 sec) 
Heartbeat CPU 0 instructions: 1820000003 cycles: 2206066514 heartbeat IPC: 0.542352 cumulative IPC: 0.634877 (Simulation time: 5 hr 51 min 42 sec) 
Heartbeat CPU 0 instructions: 1830000004 cycles: 2220270113 heartbeat IPC: 0.704047 cumulative IPC: 0.635346 (Simulation time: 5 hr 53 min 32 sec) 
Heartbeat CPU 0 instructions: 1840000003 cycles: 2239011288 heartbeat IPC: 0.533584 cumulative IPC: 0.634443 (Simulation time: 5 hr 55 min 59 sec) 
Heartbeat CPU 0 instructions: 1850000000 cycles: 2255508978 heartbeat IPC: 0.606145 cumulative IPC: 0.634224 (Simulation time: 5 hr 57 min 58 sec) 
Heartbeat CPU 0 instructions: 1860000003 cycles: 2266247441 heartbeat IPC: 0.931232 cumulative IPC: 0.635715 (Simulation time: 5 hr 59 min 25 sec) 
Heartbeat CPU 0 instructions: 1870000002 cycles: 2285979053 heartbeat IPC: 0.506801 cumulative IPC: 0.634537 (Simulation time: 6 hr 2 min 2 sec) 
Heartbeat CPU 0 instructions: 1880000003 cycles: 2299303059 heartbeat IPC: 0.750525 cumulative IPC: 0.635248 (Simulation time: 6 hr 3 min 46 sec) 
Heartbeat CPU 0 instructions: 1890000002 cycles: 2314246503 heartbeat IPC: 0.66919 cumulative IPC: 0.63548 (Simulation time: 6 hr 5 min 41 sec) 
Heartbeat CPU 0 instructions: 1900000003 cycles: 2336876748 heartbeat IPC: 0.441887 cumulative IPC: 0.633497 (Simulation time: 6 hr 8 min 35 sec) 
Heartbeat CPU 0 instructions: 1910000003 cycles: 2351767817 heartbeat IPC: 0.671543 cumulative IPC: 0.633752 (Simulation time: 6 hr 10 min 23 sec) 
Heartbeat CPU 0 instructions: 1920000004 cycles: 2367771161 heartbeat IPC: 0.624869 cumulative IPC: 0.633689 (Simulation time: 6 hr 12 min 24 sec) 
Heartbeat CPU 0 instructions: 1930000001 cycles: 2385648130 heartbeat IPC: 0.559379 cumulative IPC: 0.633101 (Simulation time: 6 hr 14 min 49 sec) 
Heartbeat CPU 0 instructions: 1940000003 cycles: 2403877333 heartbeat IPC: 0.54857 cumulative IPC: 0.632424 (Simulation time: 6 hr 17 min 6 sec) 
Heartbeat CPU 0 instructions: 1950000000 cycles: 2419958843 heartbeat IPC: 0.621832 cumulative IPC: 0.63235 (Simulation time: 6 hr 19 min 10 sec) 
Heartbeat CPU 0 instructions: 1960000001 cycles: 2438283729 heartbeat IPC: 0.545706 cumulative IPC: 0.631663 (Simulation time: 6 hr 21 min 32 sec) 
Heartbeat CPU 0 instructions: 1970000001 cycles: 2457738566 heartbeat IPC: 0.514011 cumulative IPC: 0.630681 (Simulation time: 6 hr 24 min 1 sec) 
Heartbeat CPU 0 instructions: 1980000003 cycles: 2476920657 heartbeat IPC: 0.52132 cumulative IPC: 0.629788 (Simulation time: 6 hr 26 min 24 sec) 
Heartbeat CPU 0 instructions: 1990000001 cycles: 2488223860 heartbeat IPC: 0.884705 cumulative IPC: 0.631008 (Simulation time: 6 hr 27 min 59 sec) 
*** Reached end of trace: traces/654.roms_s-1613B.champsimtrace.xz
Heartbeat CPU 0 instructions: 2000000001 cycles: 2509238324 heartbeat IPC: 0.475863 cumulative IPC: 0.62964 (Simulation time: 6 hr 30 min 43 sec) 
Finished CPU 0 instructions: 1500000000 cycles: 2382315082 cumulative IPC: 0.62964 (Simulation time: 6 hr 30 min 43 sec) 

ChampSim completed all CPUs

Region of Interest Statistics

CPU 0 cumulative IPC: 0.62964 instructions: 1500000000 cycles: 2382315082
cpu0_DTLB TOTAL     ACCESS:  327709936  HIT:  326951389  MISS:     758547
cpu0_DTLB LOAD      ACCESS:  288609332  HIT:  288021720  MISS:     587612
cpu0_DTLB RFO       ACCESS:   39100604  HIT:   38929669  MISS:     170935
cpu0_DTLB PREFETCH  ACCESS:          0  HIT:          0  MISS:          0
cpu0_DTLB WRITEBACK ACCESS:          0  HIT:          0  MISS:          0
cpu0_DTLB TRANSLATION ACCESS:          0  HIT:          0  MISS:          0
cpu0_DTLB PREFETCH  REQUESTED:          0  ISSUED:          0  USEFUL:          0  USELESS:          0
cpu0_DTLB AVERAGE MISS LATENCY: 89.7677 cycles
cpu0_ITLB TOTAL     ACCESS:   15741873  HIT:   15741872  MISS:          1
cpu0_ITLB LOAD      ACCESS:   15741873  HIT:   15741872  MISS:          1
cpu0_ITLB RFO       ACCESS:          0  HIT:          0  MISS:          0
cpu0_ITLB PREFETCH  ACCESS:          0  HIT:          0  MISS:          0
cpu0_ITLB WRITEBACK ACCESS:          0  HIT:          0  MISS:          0
cpu0_ITLB TRANSLATION ACCESS:          0  HIT:          0  MISS:          0
cpu0_ITLB PREFETCH  REQUESTED:          0  ISSUED:          0  USEFUL:          0  USELESS:          0
cpu0_ITLB AVERAGE MISS LATENCY: 217 cycles
cpu0_L1I TOTAL     ACCESS:   16745493  HIT:   16745392  MISS:        101
cpu0_L1I LOAD      ACCESS:   16745493  HIT:   16745392  MISS:        101
cpu0_L1I RFO       ACCESS:          0  HIT:          0  MISS:          0
cpu0_L1I PREFETCH  ACCESS:          0  HIT:          0  MISS:          0
cpu0_L1I WRITEBACK ACCESS:          0  HIT:          0  MISS:          0
cpu0_L1I TRANSLATION ACCESS:          0  HIT:          0  MISS:          0
cpu0_L1I PREFETCH  REQUESTED:          0  ISSUED:          0  USEFUL:          0  USELESS:          0
cpu0_L1I AVERAGE MISS LATENCY: 445.218 cycles
cpu0_STLB TOTAL     ACCESS:     758548  HIT:      66437  MISS:     692111
cpu0_STLB LOAD      ACCESS:     587613  HIT:      54173  MISS:     533440
cpu0_STLB RFO       ACCESS:     170935  HIT:      12264  MISS:     158671
cpu0_STLB PREFETCH  ACCESS:          0  HIT:          0  MISS:          0
cpu0_STLB WRITEBACK ACCESS:          0  HIT:          0  MISS:          0
cpu0_STLB TRANSLATION ACCESS:          0  HIT:          0  MISS:          0
cpu0_STLB PREFETCH  REQUESTED:          0  ISSUED:          0  USEFUL:          0  USELESS:          0
cpu0_STLB AVERAGE MISS LATENCY: 88.4936 cycles
cpu0_L1D TOTAL     ACCESS:  222143291  HIT:  189412543  MISS:   32730748
cpu0_L1D LOAD      ACCESS:  187052875  HIT:  163957325  MISS:   23095550
cpu0_L1D RFO       ACCESS:   34399495  HIT:   24765590  MISS:    9633905
cpu0_L1D PREFETCH  ACCESS:          0  HIT:          0  MISS:          0
cpu0_L1D WRITEBACK ACCESS:          0  HIT:          0  MISS:          0
cpu0_L1D TRANSLATION ACCESS:     690921  HIT:     689628  MISS:       1293
cpu0_L1D PREFETCH  REQUESTED:          0  ISSUED:          0  USEFUL:          0  USELESS:          0
cpu0_L1D AVERAGE MISS LATENCY: 484.272 cycles
cpu0_L2C TOTAL     ACCESS:   42365317  HIT:    9637954  MISS:   32727363
cpu0_L2C LOAD      ACCESS:   23095648  HIT:       4029  MISS:   23091619
cpu0_L2C RFO       ACCESS:    9633905  HIT:          0  MISS:    9633905
cpu0_L2C PREFETCH  ACCESS:          0  HIT:          0  MISS:          0
cpu0_L2C WRITEBACK ACCESS:    9634471  HIT:    9633594  MISS:        877
cpu0_L2C TRANSLATION ACCESS:       1293  HIT:        331  MISS:        962
cpu0_L2C PREFETCH  REQUESTED:          0  ISSUED:          0  USEFUL:          0  USELESS:          0
cpu0_L2C AVERAGE MISS LATENCY: 473.291 cycles
LLC TOTAL     ACCESS:   42361996  HIT:    9635611  MISS:   32726385
LLC LOAD      ACCESS:   23091619  HIT:        944  MISS:   23090675
LLC RFO       ACCESS:    9633905  HIT:          0  MISS:    9633905
LLC PREFETCH  ACCESS:          0  HIT:          0  MISS:          0
LLC WRITEBACK ACCESS:    9635510  HIT:    9634640  MISS:        870
LLC TRANSLATION ACCESS:        962  HIT:         27  MISS:        935
LLC PREFETCH  REQUESTED:          0  ISSUED:          0  USEFUL:          0  USELESS:          0
LLC AVERAGE MISS LATENCY: 452.305 cycles
~~~~~~~~~~Reuse Distance Profiler output~~~~~~~~~~
0	34965088	5510656
1	25381984	19407008
2	34205936	25453120
3	22328320	19211472
4	26163376	22216624
5	18157568	16883504
6	15329600	14195824
7	10885408	9914112
8	10297248	9745936
9	8220272	5890512
10	4182976	3127344
11	2657024	2269056
12	2470496	2372416
13	2139088	2039616
14	3208160	3131456
15	6223152	6066880
16	5238240	3387280
17	4538272	2897984
18	1350160	1310848
19	1283040	1268640
20	733824	642416
21	495824	474080
22	518864	463440
23	1723888	1035424
24	1629936	356912
25	5217936	2002256
26	6929472	4856544
27	7751456	7528048
28	1798512	1791424
29	291104	285264
30	866560	860416
31	114272	108208
32	151520	145296
33	183216	178848
34	721360	712288
35	34912	30768
36	43024	38960
37	89504	85552
38	100592	94400
39	53216	45008
40	37264	29712
41	47968	42320
42	29776	25104
43	20864	14592
44	28720	14576
45	137040	8560
46	23840	19392
47	265904	155136
48	563568	558800
49	1571424	1567024
50	1006096	1002640
51	281760	279664
52	385776	373152
53	3297296	3020832
54	8750384	7839536
55	5446624	4751552
56	192848	192064
57	74800	74304
58	3056	1824
59	1680	1088
60	2208	1792
61	912	336
62	1936	1440
63	752	608
64	1984	864
66	2432	1456
68	2384	2368
70	3744	3712
72	2720	1744
74	3248	2016
76	1200	560
78	400	400
80	496	496
82	496	496
84	576	576
86	208	208
88	48	48
90	80	80
92	48	48
94	48	48
96	0	0
98	144	128
100	80	80
102	32	32
104	96	96
106	32	32
108	16	16
110	112	80
112	16	16
114	48	0
116	80	48
118	0	0
120	0	0
122	0	0
124	16	16
126	0	0
128	0	0
132	0	0
136	16	0
140	32	32
144	1056	32
148	16	16
152	320	320
156	976	944
160	4096	4096
164	11696	11696
168	25232	25232
172	46912	46912
176	73008	73008
180	92944	92928
184	110400	110400
188	129376	129376
192	140000	140000
196	144064	144064
200	141680	141680
204	126832	126832
208	111536	111536
212	87488	87488
216	66640	66640
220	46336	46336
224	29888	29888
228	19920	19920
232	12880	12880
236	10960	10960
240	14848	14848
244	22032	22032
248	39552	39552
252	69072	69072
256	402336	402336
264	583248	583248
272	311408	311408
280	125776	125776
288	45056	45056
296	14864	14848
304	2432	2432
312	400	400
320	64	64
328	0	0
336	16	16
344	48	48
352	432	432
360	416	416
368	656	656
376	432	432
384	336	336
392	464	464
400	272	272
408	368	368
416	672	672
424	720	720
432	1856	1856
440	576	576
448	576	576
456	448	448
464	256	256
472	288	288
480	112	112
488	96	96
496	32	0
504	48	32
512	0	0
528	0	0
544	0	0
560	0	0
576	2032	2032
592	0	0
608	0	0
624	1024	1024
640	0	0
656	0	0
672	32	16
688	48	48
704	16	16
720	0	0
736	0	0
752	0	0
768	0	0
784	16	16
800	0	0
816	0	0
832	0	0
848	0	0
864	16	16
880	1632	1632
896	1936	1936
912	496	496
928	128	128
944	672	672
960	3376	3376
976	3312	3312
992	1184	1184
1008	448	432
1024	576	576
1056	224	224
1088	0	0
1120	16	0
1152	48	16
1184	16	0
1216	16	0
1248	16	0
1280	32	32
1312	16	16
1344	128	128
1376	80	80
1408	1728	1728
1440	62768	62768
1472	221328	221312
1504	572240	572240
1536	850160	850128
1568	326112	326112
1600	455440	455440
1632	300096	300096
1664	27168	27168
1696	35312	35312
1728	34992	34992
1760	1056	1056
1792	16	16
1824	16	16
1856	0	0
1888	0	0
1920	0	0
1952	128	128
1984	112	112
2016	240	240
2048	3008	2784
2112	9680	8320
2176	134544	129616
2240	254480	253296
2304	315488	315488
2368	546288	546288
2432	227536	227280
2496	82096	81008
2560	33264	30560
2624	3680	3504
2688	32	32
2752	0	0
2816	208	64
2880	1152	544
2944	6720	3744
3008	2768	1952
3072	160	160
3136	0	0
3200	1392	1328
3264	17664	17344
3328	21328	19072
3392	35872	26048
3456	46464	36832
3520	22640	22368
3584	12704	12704
3648	10528	10240
3712	13104	10704
3776	24080	12496
3840	4464	3840
3904	2848	2848
3968	1344	1344
4032	800	640
4096	27856	14688
4224	2624	608
4352	16	16
4480	24160	12544
4608	5824	2464
4736	0	0
4864	18528	10048
4992	11072	4720
5120	64	64
5248	15152	8688
5376	14864	6944
5504	48	48
5632	13024	6544
5760	16592	8016
5888	112	112
6016	12288	6304
6144	17696	8816
6272	144	80
6400	11408	5248
6528	16528	7904
6656	1264	928
6784	10752	5072
6912	16000	8448
7040	3888	2176
7168	10976	4928
7296	12864	6752
7424	5808	2848
7552	10096	4480
7680	11616	6336
7808	8064	4416
7936	10240	4288
8064	10432	5440
8192	18944	9296
8448	21216	11376
8704	18608	9024
8960	19168	8960
9216	18592	9984
9472	17952	8864
9728	22640	10432
9984	16800	9344
10240	17200	8272
10496	25360	11536
10752	16448	8736
11008	16896	8128
11264	24928	11760
11520	17088	9216
11776	15728	7520
12032	19488	8976
12288	23024	11936
12544	16752	8416
12800	15744	7936
13056	27552	13680
13312	16320	8000
13568	14608	7456
13824	26864	13472
14080	14944	6944
14336	16640	8496
14592	22416	11504
14848	14624	6272
15104	21728	10800
15360	20928	11024
15616	16192	7696
15872	22512	10960
16128	20352	10160
16384	38848	18800
16896	37824	18928
17408	33616	16176
17920	46576	23552
18432	39968	19744
18944	30624	15024
19456	32736	16304
19968	56768	28096
20480	28720	14224
20992	29648	14544
21504	54752	26752
22016	35008	17904
22528	30368	15024
23040	50096	25280
23552	38416	18496
24064	30208	14848
24576	42672	22176
25088	37024	17760
25600	38784	19056
26112	39136	19456
26624	39984	19328
27136	29584	14704
27648	35584	18208
28160	18752	9088
28672	8656	4224
29184	32	0
29696	688	672
30208	6896	6880
30720	3616	3584
31232	5776	5760
31744	8000	8000
32256	0	0
32768	16	16
33792	0	0
34816	32	32
35840	0	0
36864	0	0
37888	0	0
38912	0	0
39936	0	0
40960	0	0
41984	0	0
43008	0	0
44032	0	0
45056	0	0
46080	0	0
47104	0	0
48128	0	0
49152	0	0
50176	0	0
51200	0	0
52224	0	0
53248	0	0
54272	0	0
55296	0	0
56320	0	0
57344	0	0
58368	0	0
59392	0	0
60416	0	0
61440	0	0
62464	0	0
63488	0	0
64512	0	0
65536	0	0
67584	0	0
69632	0	0
71680	0	0
73728	0	0
75776	0	0
77824	0	0
79872	0	0
81920	0	0
83968	0	0
86016	0	0
88064	0	0
90112	0	0
92160	0	0
94208	0	0
96256	0	0
98304	0	0
100352	0	0
102400	32	32
104448	32	32
106496	48	48
108544	32	32
110592	32	32
112640	64	64
114688	67200	64464
116736	123840	119680
118784	122352	118416
120832	127232	123504
122880	127568	123456
124928	122880	119168
126976	126192	121952
129024	123344	119680
131072	526096	517584
135168	819872	809088
139264	470784	457520
143360	85680	69808
147456	29968	14528
151552	30208	14304
155648	29488	13280
159744	30016	14064
163840	30512	14576
167936	30400	14560
172032	31680	15200
176128	29776	14176
180224	30384	14448
184320	29312	14016
188416	30848	14944
192512	31120	14896
196608	30032	14352
200704	29776	13712
204800	30832	14000
208896	30560	15104
212992	30576	14480
217088	30432	14624
221184	30384	14720
225280	30128	14640
229376	29920	13824
233472	30416	14560
237568	30624	14432
241664	31088	13568
245760	29824	13872
249856	33344	16992
253952	41040	22560
258048	42896	22720
262144	81968	43824
270336	87248	48576
278528	89648	51616
286720	89504	51376
294912	91184	52480
303104	92256	52464
311296	88624	50240
319488	88832	50544
327680	90496	52192
335872	89984	50800
344064	87520	51376
352256	90848	52080
360448	88864	51680
368640	89680	50768
376832	89376	50000
385024	89632	50560
393216	86864	49312
401408	89872	50928
409600	91184	50576
417792	91488	52768
425984	89568	51056
434176	90640	51136
442368	89184	50048
450560	89504	51024
458752	89792	50784
466944	89888	51360
475136	89376	50128
483328	88560	50672
491520	90352	51344
499712	91088	51968
507904	89392	50320
516096	91664	51856
524288	186752	108848
540672	181168	105056
557056	179488	104176
573440	180768	103312
589824	177568	101136
606208	183232	105904
622592	180240	102960
638976	180400	103504
655360	180768	103920
671744	181696	104128
688128	180256	103152
704512	178304	100496
720896	181728	104432
737280	183056	105296
753664	182064	104096
770048	182704	108896
786432	191488	117440
802816	205008	145072
819200	208096	150832
835584	218320	166560
851968	224144	176208
868352	221488	173984
884736	219920	174064
901120	216368	171424
917504	208496	161616
933888	205792	159696
950272	199488	152624
966656	196752	148480
983040	192832	145872
999424	191152	147072
1015808	194256	146464
1032192	193712	147504
1048576	385872	294608
1081344	384288	292080
1114112	385808	292352
1146880	365504	273424
1179648	318368	235744
1212416	273904	199296
1245184	189552	125888
1277952	136752	82544
1310720	131536	78800
1343488	135280	81936
1376256	133712	80864
1409024	131760	78384
1441792	148240	83056
1474560	150672	79744
1507328	173280	79264
1540096	189728	78144
1572864	196880	80384
1605632	194112	77744
1638400	192432	78384
1671168	187424	73776
1703936	176528	66448
1736704	168512	61968
1769472	161504	57856
1802240	144464	47120
1835008	130960	39024
1867776	116704	29408
1900544	112032	24960
1933312	92544	15232
1966080	86304	11808
1998848	81392	7984
2031616	76368	6352
2064384	73056	4288
2097152	126688	4720
2162688	98560	4304
2228224	104688	37728
2293760	171840	104752
2359296	243696	151168
2424832	252752	161296
2490368	248000	161520
2555904	240016	157232
2621440	235808	154912
2686976	229616	149424
2752512	205328	124144
2818048	160400	77520
2883584	134192	53664
2949120	100176	21792
3014656	86448	5520
3080192	82544	1920
3145728	69904	2000
3211264	61616	2448
3276800	51360	3392
3342336	25168	2496
3407872	12896	1680
3473408	7200	1744
3538944	4624	1648
3604480	7168	4768
3670016	7072	2624
3735552	4368	2000
3801088	3168	1472
3866624	4992	2400
3932160	4224	2080
3997696	5168	2016
4063232	44896	41744
4128768	34352	30960
4194304	775264	767184
4325376	1014400	1005440
4456448	778848	774896
4587520	12784	7136
4718592	10080	5664
4849664	12624	7328
4980736	10496	6176
5111808	13072	8608
5242880	12944	8640
5373952	10656	6208
5505024	9184	5728
5636096	10192	6208
5767168	11808	7472
5898240	10592	4432
6029312	13712	7232
6160384	11776	5296
6291456	11360	5648
6422528	12368	6352
6553600	9664	5088
6684672	9872	4288
6815744	12592	6288
6946816	10688	5760
7077888	8096	4272
7208960	11520	4144
7340032	10400	4352
7471104	14016	6384
7602176	11952	5488
7733248	8768	3536
7864320	9008	5152
7995392	10080	5088
8126464	11664	5136
8257536	13648	7408
8388608	22048	12224
8650752	22560	11520
8912896	19760	9664
9175040	20128	11376
9437184	19168	7856
9699328	22496	9280
9961472	20896	9296
10223616	17136	8976
10485760	18400	8080
10747904	20064	9952
11010048	16688	9408
11272192	20672	8992
11534336	21968	11824
11796480	22752	10384
12058624	20720	11264
12320768	21952	12848
12582912	19888	9152
12845056	20304	8448
13107200	21040	13264
13369344	23440	12208
13631488	23216	12688
13893632	20000	10448
14155776	18208	9616
14417920	16112	8784
14680064	20000	10688
14942208	24080	10960
15204352	15712	6592
15466496	21360	7696
15728640	31264	21824
15990784	89984	81472
16252928	22144	17920
16515072	8576	5872
16777216	299200	299200
17301504	0	0
17825792	0	0
18350080	0	0
18874368	0	0
19398656	0	0
19922944	0	0
20447232	0	0
20971520	0	0
21495808	0	0
22020096	0	0
22544384	0	0
23068672	0	0
23592960	0	0
24117248	0	0
24641536	0	0
25165824	0	0
25690112	0	0
26214400	0	0
26738688	0	0
27262976	0	0
27787264	0	0
28311552	0	0
28835840	0	0
29360128	0	0
29884416	0	0
30408704	0	0
30932992	0	0
31457280	0	0
31981568	32	32
32505856	0	0
33030144	16	16
33554432	32	32
34603008	0	0
35651584	0	0
36700160	0	0
37748736	0	0
38797312	0	0
39845888	0	0
40894464	0	0
41943040	0	0
42991616	0	0
44040192	0	0
45088768	0	0
46137344	0	0
47185920	0	0
48234496	16	16
49283072	0	0
50331648	16	16
51380224	0	0
52428800	0	0
53477376	0	0
54525952	0	0
55574528	0	0
56623104	0	0
57671680	0	0
58720256	0	0
59768832	0	0
60817408	0	0
61865984	0	0
62914560	0	0
63963136	0	0
65011712	0	0
66060288	0	0
67108864	48	0
69206016	0	0
71303168	0	0
73400320	0	0
75497472	0	0
77594624	0	0
79691776	0	0
81788928	0	0
83886080	0	0
85983232	0	0
88080384	0	0
90177536	0	0
92274688	0	0
94371840	0	0
96468992	0	0
98566144	0	0
100663296	0	0
102760448	0	0
104857600	0	0
106954752	0	0
109051904	0	0
111149056	0	0
113246208	0	0
115343360	0	0
117440512	0	0
119537664	0	0
121634816	0	0
123731968	0	0
125829120	0	0
127926272	0	0
130023424	0	0
132120576	0	0
134217728	0	0
138412032	0	0
142606336	0	0
146800640	0	0
150994944	0	0
155189248	0	0
159383552	0	0
163577856	0	0
167772160	0	0
171966464	4096	4096
176160768	0	0
180355072	0	0
184549376	0	0
188743680	0	0
192937984	0	0
197132288	0	0
201326592	0	0
205520896	0	0
209715200	0	0
213909504	0	0
218103808	0	0
222298112	0	0
226492416	0	0
230686720	0	0
234881024	0	0
239075328	0	0
243269632	0	0
247463936	0	0
251658240	0	0
255852544	0	0
260046848	0	0
264241152	0	0
268435456	0	0
276824064	0	0
285212672	0	0
293601280	0	0
301989888	0	0
310378496	0	0
318767104	0	0
327155712	0	0
335544320	0	0
343932928	0	0
352321536	0	0
360710144	0	0
369098752	0	0
377487360	0	0
385875968	0	0
394264576	0	0
402653184	0	0
411041792	0	0
419430400	0	0
427819008	0	0
436207616	0	0
444596224	0	0
452984832	0	0
461373440	0	0
469762048	0	0
478150656	0	0
486539264	0	0
494927872	0	0
503316480	0	0
511705088	0	0
520093696	0	0
528482304	0	0
536870912	0	0
553648128	0	0
570425344	0	0
587202560	0	0
603979776	0	0
620756992	0	0
637534208	0	0
654311424	0	0
671088640	0	0
687865856	0	0
704643072	0	0
721420288	0	0
738197504	0	0
754974720	0	0
771751936	0	0
788529152	0	0
805306368	0	0
822083584	0	0
838860800	0	0
855638016	0	0
872415232	0	0
889192448	0	0
905969664	0	0
922746880	0	0
939524096	0	0
956301312	0	0
973078528	0	0
989855744	0	0
1006632960	0	0
1023410176	0	0
1040187392	0	0
1056964608	0	0
1073741824	0	0
1107296256	0	0
1140850688	0	0
1174405120	0	0
1207959552	0	0
1241513984	0	0
1275068416	0	0
1308622848	0	0
1342177280	0	0
1375731712	0	0
1409286144	0	0
1442840576	0	0
1476395008	0	0
1509949440	0	0
1543503872	0	0
1577058304	0	0
1610612736	0	0
1644167168	0	0
1677721600	0	0
1711276032	0	0
1744830464	0	0
1778384896	0	0
1811939328	0	0
1845493760	0	0
1879048192	0	0
1912602624	0	0
1946157056	0	0
1979711488	0	0
2013265920	0	0
2046820352	0	0
2080374784	0	0
2113929216	0	0
2147483648	0	0
2214592512	0	0
2281701376	0	0
2348810240	0	0
2415919104	0	0
2483027968	0	0
2550136832	0	0
2617245696	0	0
2684354560	0	0
2751463424	0	0
2818572288	0	0
2885681152	0	0
2952790016	0	0
3019898880	0	0
3087007744	0	0
3154116608	0	0
3221225472	0	0
3288334336	0	0
3355443200	0	0
3422552064	0	0
3489660928	0	0
3556769792	0	0
3623878656	0	0
3690987520	0	0
3758096384	0	0
3825205248	0	0
3892314112	0	0
3959422976	0	0
4026531840	0	0
4093640704	0	0
4160749568	0	0
4227858432	0	0
~~~~~~~~~~Reuse Distance Profiler output end~~~~~~~~~~

DRAM Statistics
 CHANNEL 0
 RQ ROW_BUFFER_HIT:     619347  ROW_BUFFER_MISS:   32106167
 DBUS AVG_CONGESTED_CYCLE:    3.96354
 WQ ROW_BUFFER_HIT:     572206  ROW_BUFFER_MISS:    9060613  FULL:          0


CPU 0 Branch Prediction Accuracy: 99.7031% MPKI: 0.20591 Average ROB Occupancy at Mispredict: 311.118
Branch type MPKI
BRANCH_DIRECT_JUMP: 1.33333e-06
BRANCH_INDIRECT: 0
BRANCH_CONDITIONAL: 0.205908
BRANCH_DIRECT_CALL: 0
BRANCH_INDIRECT_CALL: 0
BRANCH_RETURN: 6.66667e-07

