
*** ChampSim Multicore Out-of-Order Simulator ***

Warmup Instructions: 500000000
Simulation Instructions: 1500000000
Number of CPUs: 1
Off-chip DRAM Size: 4 GiB Channels: 1 Width: 64-bit Data Rate: 3200 MT/s

VirtualMemory physical capacity: 8588881920 num_ppages: 2096895
VirtualMemory page size: 4096 log2_page_size: 12

CPU 0 runs traces/654.roms_s-1007B.champsimtrace.xz
CPU 0 Bimodal branch predictor
Basic BTB sets: 1024 ways: 8 indirect buffer size: 4096 RAS size: 64
Initializing LRU.
Initializing LRU.
Initializing LRU.
Initializing LRU.
Initializing rdLRU.
Initializing LRU.
Initializing LRU.
Heartbeat CPU 0 instructions: 10000001 cycles: 2513150 heartbeat IPC: 3.97907 cumulative IPC: 3.97907 (Simulation time: 0 hr 0 min 53 sec) 
Heartbeat CPU 0 instructions: 20000000 cycles: 5026366 heartbeat IPC: 3.97897 cumulative IPC: 3.97902 (Simulation time: 0 hr 1 min 45 sec) 
Heartbeat CPU 0 instructions: 30000002 cycles: 7539434 heartbeat IPC: 3.9792 cumulative IPC: 3.97908 (Simulation time: 0 hr 2 min 34 sec) 
Heartbeat CPU 0 instructions: 40000001 cycles: 10052489 heartbeat IPC: 3.97922 cumulative IPC: 3.97911 (Simulation time: 0 hr 3 min 29 sec) 
Heartbeat CPU 0 instructions: 50000002 cycles: 13084082 heartbeat IPC: 3.2986 cumulative IPC: 3.82144 (Simulation time: 0 hr 4 min 33 sec) 
Heartbeat CPU 0 instructions: 60000002 cycles: 15791495 heartbeat IPC: 3.69356 cumulative IPC: 3.79951 (Simulation time: 0 hr 5 min 17 sec) 
Heartbeat CPU 0 instructions: 70000003 cycles: 18304717 heartbeat IPC: 3.97896 cumulative IPC: 3.82415 (Simulation time: 0 hr 6 min 7 sec) 
Heartbeat CPU 0 instructions: 80000003 cycles: 20817781 heartbeat IPC: 3.97921 cumulative IPC: 3.84287 (Simulation time: 0 hr 6 min 57 sec) 
Heartbeat CPU 0 instructions: 90000002 cycles: 23330844 heartbeat IPC: 3.97921 cumulative IPC: 3.85755 (Simulation time: 0 hr 7 min 45 sec) 
Heartbeat CPU 0 instructions: 100000003 cycles: 25844068 heartbeat IPC: 3.97895 cumulative IPC: 3.86936 (Simulation time: 0 hr 8 min 22 sec) 
Heartbeat CPU 0 instructions: 110000002 cycles: 28357129 heartbeat IPC: 3.97921 cumulative IPC: 3.8791 (Simulation time: 0 hr 9 min 3 sec) 
Heartbeat CPU 0 instructions: 120000003 cycles: 31083039 heartbeat IPC: 3.6685 cumulative IPC: 3.86063 (Simulation time: 0 hr 9 min 49 sec) 
Heartbeat CPU 0 instructions: 130000003 cycles: 34096086 heartbeat IPC: 3.3189 cumulative IPC: 3.81275 (Simulation time: 0 hr 10 min 56 sec) 
Heartbeat CPU 0 instructions: 140000002 cycles: 36609363 heartbeat IPC: 3.97887 cumulative IPC: 3.82416 (Simulation time: 0 hr 11 min 40 sec) 
Heartbeat CPU 0 instructions: 150000003 cycles: 39122371 heartbeat IPC: 3.9793 cumulative IPC: 3.83412 (Simulation time: 0 hr 12 min 27 sec) 
Heartbeat CPU 0 instructions: 160000002 cycles: 41635441 heartbeat IPC: 3.9792 cumulative IPC: 3.84288 (Simulation time: 0 hr 13 min 11 sec) 
Heartbeat CPU 0 instructions: 170000002 cycles: 44148653 heartbeat IPC: 3.97897 cumulative IPC: 3.85063 (Simulation time: 0 hr 13 min 59 sec) 
Heartbeat CPU 0 instructions: 180000002 cycles: 46661724 heartbeat IPC: 3.9792 cumulative IPC: 3.85755 (Simulation time: 0 hr 14 min 50 sec) 
Heartbeat CPU 0 instructions: 190000000 cycles: 49174775 heartbeat IPC: 3.97923 cumulative IPC: 3.86377 (Simulation time: 0 hr 15 min 45 sec) 
Heartbeat CPU 0 instructions: 200000000 cycles: 52401263 heartbeat IPC: 3.09935 cumulative IPC: 3.8167 (Simulation time: 0 hr 17 min 1 sec) 
Heartbeat CPU 0 instructions: 210000003 cycles: 54913741 heartbeat IPC: 3.98014 cumulative IPC: 3.82418 (Simulation time: 0 hr 17 min 54 sec) 
Heartbeat CPU 0 instructions: 220000000 cycles: 57426958 heartbeat IPC: 3.97896 cumulative IPC: 3.83095 (Simulation time: 0 hr 18 min 50 sec) 
Heartbeat CPU 0 instructions: 230000001 cycles: 59940028 heartbeat IPC: 3.9792 cumulative IPC: 3.83717 (Simulation time: 0 hr 19 min 39 sec) 
Heartbeat CPU 0 instructions: 240000000 cycles: 62453085 heartbeat IPC: 3.97922 cumulative IPC: 3.84288 (Simulation time: 0 hr 20 min 30 sec) 
Heartbeat CPU 0 instructions: 250000002 cycles: 64966311 heartbeat IPC: 3.97895 cumulative IPC: 3.84815 (Simulation time: 0 hr 21 min 14 sec) 
Heartbeat CPU 0 instructions: 260000000 cycles: 67479369 heartbeat IPC: 3.97921 cumulative IPC: 3.85303 (Simulation time: 0 hr 22 min 8 sec) 
Heartbeat CPU 0 instructions: 270000002 cycles: 70416767 heartbeat IPC: 3.40437 cumulative IPC: 3.83431 (Simulation time: 0 hr 23 min 12 sec) 
Heartbeat CPU 0 instructions: 280000001 cycles: 73218332 heartbeat IPC: 3.56943 cumulative IPC: 3.82418 (Simulation time: 0 hr 24 min 16 sec) 
Heartbeat CPU 0 instructions: 290000000 cycles: 75731395 heartbeat IPC: 3.97921 cumulative IPC: 3.82932 (Simulation time: 0 hr 25 min 6 sec) 
Heartbeat CPU 0 instructions: 300000002 cycles: 78244617 heartbeat IPC: 3.97896 cumulative IPC: 3.83413 (Simulation time: 0 hr 26 min 0 sec) 
Heartbeat CPU 0 instructions: 310000000 cycles: 80757683 heartbeat IPC: 3.9792 cumulative IPC: 3.83864 (Simulation time: 0 hr 26 min 54 sec) 
Heartbeat CPU 0 instructions: 320000003 cycles: 83270869 heartbeat IPC: 3.97901 cumulative IPC: 3.84288 (Simulation time: 0 hr 27 min 51 sec) 
Heartbeat CPU 0 instructions: 330000000 cycles: 85783968 heartbeat IPC: 3.97915 cumulative IPC: 3.84687 (Simulation time: 0 hr 28 min 41 sec) 
Heartbeat CPU 0 instructions: 340000000 cycles: 88415685 heartbeat IPC: 3.7998 cumulative IPC: 3.84547 (Simulation time: 0 hr 29 min 38 sec) 
Heartbeat CPU 0 instructions: 350000003 cycles: 91523409 heartbeat IPC: 3.21779 cumulative IPC: 3.82416 (Simulation time: 0 hr 30 min 46 sec) 
Heartbeat CPU 0 instructions: 360000002 cycles: 94045338 heartbeat IPC: 3.96522 cumulative IPC: 3.82794 (Simulation time: 0 hr 31 min 39 sec) 
Heartbeat CPU 0 instructions: 370000002 cycles: 96567274 heartbeat IPC: 3.96521 cumulative IPC: 3.83153 (Simulation time: 0 hr 32 min 29 sec) 
Heartbeat CPU 0 instructions: 380000000 cycles: 99089046 heartbeat IPC: 3.96546 cumulative IPC: 3.83493 (Simulation time: 0 hr 33 min 22 sec) 
Heartbeat CPU 0 instructions: 390000000 cycles: 101846413 heartbeat IPC: 3.62665 cumulative IPC: 3.8293 (Simulation time: 0 hr 34 min 24 sec) 
Heartbeat CPU 0 instructions: 400000003 cycles: 105290284 heartbeat IPC: 2.90371 cumulative IPC: 3.79902 (Simulation time: 0 hr 35 min 40 sec) 
Heartbeat CPU 0 instructions: 410000001 cycles: 108281125 heartbeat IPC: 3.34354 cumulative IPC: 3.78644 (Simulation time: 0 hr 36 min 50 sec) 
Heartbeat CPU 0 instructions: 420000002 cycles: 111594340 heartbeat IPC: 3.01822 cumulative IPC: 3.76363 (Simulation time: 0 hr 38 min 12 sec) 
Heartbeat CPU 0 instructions: 430000000 cycles: 116138336 heartbeat IPC: 2.20071 cumulative IPC: 3.70248 (Simulation time: 0 hr 40 min 21 sec) 
Heartbeat CPU 0 instructions: 440000004 cycles: 120854460 heartbeat IPC: 2.12039 cumulative IPC: 3.64074 (Simulation time: 0 hr 42 min 22 sec) 
Heartbeat CPU 0 instructions: 450000002 cycles: 125424745 heartbeat IPC: 2.18805 cumulative IPC: 3.58781 (Simulation time: 0 hr 44 min 30 sec) 
Heartbeat CPU 0 instructions: 460000001 cycles: 129981764 heartbeat IPC: 2.19442 cumulative IPC: 3.53896 (Simulation time: 0 hr 46 min 46 sec) 
Heartbeat CPU 0 instructions: 470000003 cycles: 134538846 heartbeat IPC: 2.19439 cumulative IPC: 3.49341 (Simulation time: 0 hr 48 min 36 sec) 
Heartbeat CPU 0 instructions: 480000003 cycles: 139149435 heartbeat IPC: 2.16892 cumulative IPC: 3.44953 (Simulation time: 0 hr 50 min 41 sec) 
Heartbeat CPU 0 instructions: 490000004 cycles: 143830878 heartbeat IPC: 2.13609 cumulative IPC: 3.40678 (Simulation time: 0 hr 52 min 41 sec) 
Heartbeat CPU 0 instructions: 500000000 cycles: 148369447 heartbeat IPC: 2.20334 cumulative IPC: 3.36997 (Simulation time: 0 hr 54 min 53 sec) 

Warmup complete CPU 0 instructions: 500000005 cycles: 148369448 (Simulation time: 0 hr 54 min 53 sec) 

Heartbeat CPU 0 instructions: 510000003 cycles: 158008675 heartbeat IPC: 1.03743 cumulative IPC: 1.03743 (Simulation time: 0 hr 57 min 27 sec) 
Heartbeat CPU 0 instructions: 520000002 cycles: 167589856 heartbeat IPC: 1.04371 cumulative IPC: 1.04056 (Simulation time: 1 hr 0 min 1 sec) 
Heartbeat CPU 0 instructions: 530000000 cycles: 177297519 heartbeat IPC: 1.03011 cumulative IPC: 1.03705 (Simulation time: 1 hr 2 min 54 sec) 
Heartbeat CPU 0 instructions: 540000002 cycles: 186799132 heartbeat IPC: 1.05245 cumulative IPC: 1.04086 (Simulation time: 1 hr 5 min 39 sec) 
Heartbeat CPU 0 instructions: 550000001 cycles: 196312247 heartbeat IPC: 1.05118 cumulative IPC: 1.04291 (Simulation time: 1 hr 8 min 21 sec) 
Heartbeat CPU 0 instructions: 560000003 cycles: 205805093 heartbeat IPC: 1.05343 cumulative IPC: 1.04465 (Simulation time: 1 hr 11 min 20 sec) 
Heartbeat CPU 0 instructions: 570000004 cycles: 215428577 heartbeat IPC: 1.03912 cumulative IPC: 1.04385 (Simulation time: 1 hr 14 min 15 sec) 
Heartbeat CPU 0 instructions: 580000002 cycles: 225224225 heartbeat IPC: 1.02086 cumulative IPC: 1.04092 (Simulation time: 1 hr 16 min 53 sec) 
Heartbeat CPU 0 instructions: 590000002 cycles: 234635328 heartbeat IPC: 1.06257 cumulative IPC: 1.04329 (Simulation time: 1 hr 19 min 12 sec) 
Heartbeat CPU 0 instructions: 600000003 cycles: 244186161 heartbeat IPC: 1.04703 cumulative IPC: 1.04366 (Simulation time: 1 hr 21 min 11 sec) 
Heartbeat CPU 0 instructions: 610000004 cycles: 252405073 heartbeat IPC: 1.21671 cumulative IPC: 1.05733 (Simulation time: 1 hr 23 min 13 sec) 
Heartbeat CPU 0 instructions: 620000004 cycles: 260380223 heartbeat IPC: 1.25389 cumulative IPC: 1.07133 (Simulation time: 1 hr 25 min 15 sec) 
Heartbeat CPU 0 instructions: 630000000 cycles: 268416217 heartbeat IPC: 1.2444 cumulative IPC: 1.08291 (Simulation time: 1 hr 27 min 33 sec) 
Heartbeat CPU 0 instructions: 640000000 cycles: 276469013 heartbeat IPC: 1.2418 cumulative IPC: 1.0929 (Simulation time: 1 hr 29 min 25 sec) 
Heartbeat CPU 0 instructions: 650000000 cycles: 284333662 heartbeat IPC: 1.27151 cumulative IPC: 1.10323 (Simulation time: 1 hr 31 min 25 sec) 
Heartbeat CPU 0 instructions: 660000001 cycles: 292078359 heartbeat IPC: 1.29121 cumulative IPC: 1.11336 (Simulation time: 1 hr 33 min 28 sec) 
Heartbeat CPU 0 instructions: 670000004 cycles: 299928365 heartbeat IPC: 1.27388 cumulative IPC: 1.12168 (Simulation time: 1 hr 35 min 30 sec) 
Heartbeat CPU 0 instructions: 680000001 cycles: 308471382 heartbeat IPC: 1.17055 cumulative IPC: 1.12428 (Simulation time: 1 hr 37 min 23 sec) 
Heartbeat CPU 0 instructions: 690000000 cycles: 316924420 heartbeat IPC: 1.18301 cumulative IPC: 1.12723 (Simulation time: 1 hr 40 min 1 sec) 
Heartbeat CPU 0 instructions: 700000001 cycles: 324715975 heartbeat IPC: 1.28344 cumulative IPC: 1.13413 (Simulation time: 1 hr 42 min 23 sec) 
Heartbeat CPU 0 instructions: 710000003 cycles: 333132226 heartbeat IPC: 1.18818 cumulative IPC: 1.13659 (Simulation time: 1 hr 44 min 30 sec) 
Heartbeat CPU 0 instructions: 720000003 cycles: 342827857 heartbeat IPC: 1.03139 cumulative IPC: 1.13135 (Simulation time: 1 hr 47 min 7 sec) 
Heartbeat CPU 0 instructions: 730000001 cycles: 352250653 heartbeat IPC: 1.06126 cumulative IPC: 1.12811 (Simulation time: 1 hr 49 min 59 sec) 
Heartbeat CPU 0 instructions: 740000002 cycles: 361714042 heartbeat IPC: 1.0567 cumulative IPC: 1.12494 (Simulation time: 1 hr 52 min 47 sec) 
Heartbeat CPU 0 instructions: 750000001 cycles: 371158233 heartbeat IPC: 1.05885 cumulative IPC: 1.12214 (Simulation time: 1 hr 55 min 35 sec) 
Heartbeat CPU 0 instructions: 760000001 cycles: 380775508 heartbeat IPC: 1.0398 cumulative IPC: 1.11873 (Simulation time: 1 hr 58 min 10 sec) 
Heartbeat CPU 0 instructions: 770000002 cycles: 390467939 heartbeat IPC: 1.03173 cumulative IPC: 1.11525 (Simulation time: 2 hr 0 min 24 sec) 
Heartbeat CPU 0 instructions: 780000001 cycles: 399848035 heartbeat IPC: 1.06609 cumulative IPC: 1.11341 (Simulation time: 2 hr 2 min 48 sec) 
Heartbeat CPU 0 instructions: 790000004 cycles: 409450795 heartbeat IPC: 1.04137 cumulative IPC: 1.11076 (Simulation time: 2 hr 5 min 17 sec) 
Heartbeat CPU 0 instructions: 800000003 cycles: 419242513 heartbeat IPC: 1.02127 cumulative IPC: 1.10753 (Simulation time: 2 hr 7 min 45 sec) 
Heartbeat CPU 0 instructions: 810000004 cycles: 428833829 heartbeat IPC: 1.04261 cumulative IPC: 1.10531 (Simulation time: 2 hr 10 min 4 sec) 
Heartbeat CPU 0 instructions: 820000001 cycles: 438313352 heartbeat IPC: 1.05491 cumulative IPC: 1.10366 (Simulation time: 2 hr 12 min 34 sec) 
Heartbeat CPU 0 instructions: 830000002 cycles: 447778466 heartbeat IPC: 1.05651 cumulative IPC: 1.10217 (Simulation time: 2 hr 15 min 10 sec) 
Heartbeat CPU 0 instructions: 840000001 cycles: 457292485 heartbeat IPC: 1.05108 cumulative IPC: 1.1006 (Simulation time: 2 hr 17 min 55 sec) 
Heartbeat CPU 0 instructions: 850000003 cycles: 467018881 heartbeat IPC: 1.02813 cumulative IPC: 1.09839 (Simulation time: 2 hr 20 min 11 sec) 
Heartbeat CPU 0 instructions: 860000004 cycles: 476738432 heartbeat IPC: 1.02885 cumulative IPC: 1.09633 (Simulation time: 2 hr 22 min 41 sec) 
Heartbeat CPU 0 instructions: 870000000 cycles: 485996193 heartbeat IPC: 1.08017 cumulative IPC: 1.09588 (Simulation time: 2 hr 25 min 22 sec) 
Heartbeat CPU 0 instructions: 880000004 cycles: 495389878 heartbeat IPC: 1.06455 cumulative IPC: 1.09504 (Simulation time: 2 hr 27 min 54 sec) 
Heartbeat CPU 0 instructions: 890000003 cycles: 505025289 heartbeat IPC: 1.03784 cumulative IPC: 1.09349 (Simulation time: 2 hr 29 min 37 sec) 
Heartbeat CPU 0 instructions: 900000002 cycles: 514675546 heartbeat IPC: 1.03624 cumulative IPC: 1.09198 (Simulation time: 2 hr 31 min 51 sec) 
Heartbeat CPU 0 instructions: 910000002 cycles: 524164253 heartbeat IPC: 1.05388 cumulative IPC: 1.09102 (Simulation time: 2 hr 33 min 57 sec) 
Heartbeat CPU 0 instructions: 920000002 cycles: 533611054 heartbeat IPC: 1.05856 cumulative IPC: 1.09022 (Simulation time: 2 hr 36 min 13 sec) 
Heartbeat CPU 0 instructions: 930000004 cycles: 543103940 heartbeat IPC: 1.05342 cumulative IPC: 1.08934 (Simulation time: 2 hr 39 min 3 sec) 
Heartbeat CPU 0 instructions: 940000001 cycles: 552738808 heartbeat IPC: 1.0379 cumulative IPC: 1.08811 (Simulation time: 2 hr 40 min 50 sec) 
Heartbeat CPU 0 instructions: 950000000 cycles: 562539300 heartbeat IPC: 1.02036 cumulative IPC: 1.08651 (Simulation time: 2 hr 43 min 4 sec) 
Heartbeat CPU 0 instructions: 960000000 cycles: 571805532 heartbeat IPC: 1.07919 cumulative IPC: 1.08635 (Simulation time: 2 hr 45 min 2 sec) 
Heartbeat CPU 0 instructions: 970000004 cycles: 581359487 heartbeat IPC: 1.04669 cumulative IPC: 1.08548 (Simulation time: 2 hr 46 min 42 sec) 
Heartbeat CPU 0 instructions: 980000003 cycles: 590929012 heartbeat IPC: 1.04498 cumulative IPC: 1.0846 (Simulation time: 2 hr 48 min 38 sec) 
Heartbeat CPU 0 instructions: 990000002 cycles: 600499625 heartbeat IPC: 1.04487 cumulative IPC: 1.08376 (Simulation time: 2 hr 50 min 18 sec) 
Heartbeat CPU 0 instructions: 1000000002 cycles: 610221045 heartbeat IPC: 1.02866 cumulative IPC: 1.0826 (Simulation time: 2 hr 52 min 1 sec) 
Heartbeat CPU 0 instructions: 1010000002 cycles: 619645216 heartbeat IPC: 1.0611 cumulative IPC: 1.08217 (Simulation time: 2 hr 53 min 46 sec) 
Heartbeat CPU 0 instructions: 1020000004 cycles: 629155662 heartbeat IPC: 1.05148 cumulative IPC: 1.08156 (Simulation time: 2 hr 55 min 22 sec) 
Heartbeat CPU 0 instructions: 1030000000 cycles: 638692082 heartbeat IPC: 1.04861 cumulative IPC: 1.08092 (Simulation time: 2 hr 56 min 59 sec) 
Heartbeat CPU 0 instructions: 1040000002 cycles: 648459597 heartbeat IPC: 1.0238 cumulative IPC: 1.07981 (Simulation time: 2 hr 58 min 39 sec) 
Heartbeat CPU 0 instructions: 1050000000 cycles: 657960155 heartbeat IPC: 1.05257 cumulative IPC: 1.0793 (Simulation time: 3 hr 0 min 15 sec) 
Heartbeat CPU 0 instructions: 1060000004 cycles: 667479156 heartbeat IPC: 1.05053 cumulative IPC: 1.07877 (Simulation time: 3 hr 1 min 52 sec) 
Heartbeat CPU 0 instructions: 1070000003 cycles: 677104990 heartbeat IPC: 1.03887 cumulative IPC: 1.07804 (Simulation time: 3 hr 3 min 28 sec) 
Heartbeat CPU 0 instructions: 1080000004 cycles: 686749565 heartbeat IPC: 1.03685 cumulative IPC: 1.07731 (Simulation time: 3 hr 5 min 7 sec) 
Heartbeat CPU 0 instructions: 1090000003 cycles: 696458900 heartbeat IPC: 1.02994 cumulative IPC: 1.07647 (Simulation time: 3 hr 6 min 47 sec) 
Heartbeat CPU 0 instructions: 1100000002 cycles: 705854346 heartbeat IPC: 1.06435 cumulative IPC: 1.07626 (Simulation time: 3 hr 8 min 23 sec) 
Heartbeat CPU 0 instructions: 1110000001 cycles: 715435978 heartbeat IPC: 1.04366 cumulative IPC: 1.07571 (Simulation time: 3 hr 9 min 59 sec) 
Heartbeat CPU 0 instructions: 1120000000 cycles: 725150447 heartbeat IPC: 1.02939 cumulative IPC: 1.07493 (Simulation time: 3 hr 11 min 36 sec) 
Heartbeat CPU 0 instructions: 1130000000 cycles: 734756554 heartbeat IPC: 1.041 cumulative IPC: 1.07438 (Simulation time: 3 hr 13 min 13 sec) 
Heartbeat CPU 0 instructions: 1140000003 cycles: 744198143 heartbeat IPC: 1.05914 cumulative IPC: 1.07413 (Simulation time: 3 hr 14 min 49 sec) 
Heartbeat CPU 0 instructions: 1150000002 cycles: 753639974 heartbeat IPC: 1.05912 cumulative IPC: 1.0739 (Simulation time: 3 hr 16 min 24 sec) 
Heartbeat CPU 0 instructions: 1160000003 cycles: 763111050 heartbeat IPC: 1.05585 cumulative IPC: 1.07362 (Simulation time: 3 hr 18 min 0 sec) 
Heartbeat CPU 0 instructions: 1170000004 cycles: 772667751 heartbeat IPC: 1.04639 cumulative IPC: 1.0732 (Simulation time: 3 hr 19 min 37 sec) 
Heartbeat CPU 0 instructions: 1180000004 cycles: 782362399 heartbeat IPC: 1.0315 cumulative IPC: 1.07257 (Simulation time: 3 hr 21 min 16 sec) 
Heartbeat CPU 0 instructions: 1190000002 cycles: 791701948 heartbeat IPC: 1.07072 cumulative IPC: 1.07254 (Simulation time: 3 hr 22 min 51 sec) 
Heartbeat CPU 0 instructions: 1200000001 cycles: 801269776 heartbeat IPC: 1.04517 cumulative IPC: 1.07214 (Simulation time: 3 hr 24 min 27 sec) 
Heartbeat CPU 0 instructions: 1210000000 cycles: 810892948 heartbeat IPC: 1.03916 cumulative IPC: 1.07166 (Simulation time: 3 hr 26 min 3 sec) 
Heartbeat CPU 0 instructions: 1220000002 cycles: 820618501 heartbeat IPC: 1.02822 cumulative IPC: 1.07103 (Simulation time: 3 hr 27 min 42 sec) 
Heartbeat CPU 0 instructions: 1230000002 cycles: 830018197 heartbeat IPC: 1.06386 cumulative IPC: 1.07093 (Simulation time: 3 hr 29 min 18 sec) 
Heartbeat CPU 0 instructions: 1240000002 cycles: 839630993 heartbeat IPC: 1.04028 cumulative IPC: 1.07051 (Simulation time: 3 hr 30 min 54 sec) 
Heartbeat CPU 0 instructions: 1250000001 cycles: 849231539 heartbeat IPC: 1.04161 cumulative IPC: 1.07011 (Simulation time: 3 hr 32 min 30 sec) 
Heartbeat CPU 0 instructions: 1260000001 cycles: 858894413 heartbeat IPC: 1.03489 cumulative IPC: 1.06963 (Simulation time: 3 hr 34 min 6 sec) 
Heartbeat CPU 0 instructions: 1270000001 cycles: 868693842 heartbeat IPC: 1.02047 cumulative IPC: 1.06896 (Simulation time: 3 hr 35 min 45 sec) 
Heartbeat CPU 0 instructions: 1280000002 cycles: 877969132 heartbeat IPC: 1.07813 cumulative IPC: 1.06908 (Simulation time: 3 hr 37 min 20 sec) 
Heartbeat CPU 0 instructions: 1290000001 cycles: 887455244 heartbeat IPC: 1.05417 cumulative IPC: 1.06889 (Simulation time: 3 hr 38 min 55 sec) 
Heartbeat CPU 0 instructions: 1300000001 cycles: 897003523 heartbeat IPC: 1.04731 cumulative IPC: 1.06861 (Simulation time: 3 hr 40 min 31 sec) 
Heartbeat CPU 0 instructions: 1310000000 cycles: 906592463 heartbeat IPC: 1.04287 cumulative IPC: 1.06829 (Simulation time: 3 hr 42 min 8 sec) 
Heartbeat CPU 0 instructions: 1320000001 cycles: 916170843 heartbeat IPC: 1.04402 cumulative IPC: 1.06798 (Simulation time: 3 hr 43 min 46 sec) 
Heartbeat CPU 0 instructions: 1330000002 cycles: 925673339 heartbeat IPC: 1.05236 cumulative IPC: 1.06779 (Simulation time: 3 hr 45 min 21 sec) 
Heartbeat CPU 0 instructions: 1340000001 cycles: 935286591 heartbeat IPC: 1.04023 cumulative IPC: 1.06746 (Simulation time: 3 hr 46 min 57 sec) 
Heartbeat CPU 0 instructions: 1350000001 cycles: 944894411 heartbeat IPC: 1.04082 cumulative IPC: 1.06714 (Simulation time: 3 hr 48 min 33 sec) 
Heartbeat CPU 0 instructions: 1360000004 cycles: 954596028 heartbeat IPC: 1.03076 cumulative IPC: 1.0667 (Simulation time: 3 hr 50 min 11 sec) 
Heartbeat CPU 0 instructions: 1370000002 cycles: 964021552 heartbeat IPC: 1.06095 cumulative IPC: 1.06663 (Simulation time: 3 hr 51 min 47 sec) 
Heartbeat CPU 0 instructions: 1380000001 cycles: 973583148 heartbeat IPC: 1.04585 cumulative IPC: 1.06639 (Simulation time: 3 hr 53 min 23 sec) 
Heartbeat CPU 0 instructions: 1390000000 cycles: 983179408 heartbeat IPC: 1.04207 cumulative IPC: 1.06611 (Simulation time: 3 hr 54 min 58 sec) 
Heartbeat CPU 0 instructions: 1400000001 cycles: 992780403 heartbeat IPC: 1.04156 cumulative IPC: 1.06583 (Simulation time: 3 hr 56 min 35 sec) 
Heartbeat CPU 0 instructions: 1410000001 cycles: 1002484856 heartbeat IPC: 1.03045 cumulative IPC: 1.06543 (Simulation time: 3 hr 58 min 13 sec) 
Heartbeat CPU 0 instructions: 1420000004 cycles: 1011811008 heartbeat IPC: 1.07225 cumulative IPC: 1.0655 (Simulation time: 3 hr 59 min 48 sec) 
Heartbeat CPU 0 instructions: 1430000004 cycles: 1021489359 heartbeat IPC: 1.03323 cumulative IPC: 1.06515 (Simulation time: 4 hr 1 min 25 sec) 
Heartbeat CPU 0 instructions: 1440000000 cycles: 1031103627 heartbeat IPC: 1.04012 cumulative IPC: 1.06487 (Simulation time: 4 hr 3 min 1 sec) 
Heartbeat CPU 0 instructions: 1450000001 cycles: 1038769057 heartbeat IPC: 1.30456 cumulative IPC: 1.06694 (Simulation time: 4 hr 4 min 16 sec) 
Heartbeat CPU 0 instructions: 1460000001 cycles: 1046449801 heartbeat IPC: 1.30196 cumulative IPC: 1.06895 (Simulation time: 4 hr 5 min 32 sec) 
Heartbeat CPU 0 instructions: 1470000003 cycles: 1054206255 heartbeat IPC: 1.28925 cumulative IPC: 1.07083 (Simulation time: 4 hr 6 min 48 sec) 
Heartbeat CPU 0 instructions: 1480000004 cycles: 1061933607 heartbeat IPC: 1.2941 cumulative IPC: 1.07272 (Simulation time: 4 hr 8 min 4 sec) 
Heartbeat CPU 0 instructions: 1490000001 cycles: 1069616132 heartbeat IPC: 1.30165 cumulative IPC: 1.07463 (Simulation time: 4 hr 9 min 20 sec) 
Heartbeat CPU 0 instructions: 1500000001 cycles: 1077303333 heartbeat IPC: 1.30086 cumulative IPC: 1.0765 (Simulation time: 4 hr 10 min 35 sec) 
Heartbeat CPU 0 instructions: 1510000000 cycles: 1085120738 heartbeat IPC: 1.2792 cumulative IPC: 1.07819 (Simulation time: 4 hr 11 min 52 sec) 
Heartbeat CPU 0 instructions: 1520000001 cycles: 1092887656 heartbeat IPC: 1.28751 cumulative IPC: 1.07992 (Simulation time: 4 hr 13 min 8 sec) 
Heartbeat CPU 0 instructions: 1530000003 cycles: 1100687561 heartbeat IPC: 1.28207 cumulative IPC: 1.08157 (Simulation time: 4 hr 14 min 25 sec) 
Heartbeat CPU 0 instructions: 1540000003 cycles: 1108367195 heartbeat IPC: 1.30215 cumulative IPC: 1.08334 (Simulation time: 4 hr 15 min 40 sec) 
Heartbeat CPU 0 instructions: 1550000004 cycles: 1116152007 heartbeat IPC: 1.28455 cumulative IPC: 1.08495 (Simulation time: 4 hr 16 min 57 sec) 
Heartbeat CPU 0 instructions: 1560000004 cycles: 1123903940 heartbeat IPC: 1.29 cumulative IPC: 1.08658 (Simulation time: 4 hr 18 min 12 sec) 
Heartbeat CPU 0 instructions: 1570000004 cycles: 1131644608 heartbeat IPC: 1.29188 cumulative IPC: 1.0882 (Simulation time: 4 hr 19 min 29 sec) 
Heartbeat CPU 0 instructions: 1580000002 cycles: 1139155332 heartbeat IPC: 1.33143 cumulative IPC: 1.09004 (Simulation time: 4 hr 20 min 42 sec) 
Heartbeat CPU 0 instructions: 1590000004 cycles: 1146759558 heartbeat IPC: 1.31506 cumulative IPC: 1.09176 (Simulation time: 4 hr 21 min 58 sec) 
Heartbeat CPU 0 instructions: 1600000000 cycles: 1154521306 heartbeat IPC: 1.28837 cumulative IPC: 1.09327 (Simulation time: 4 hr 23 min 15 sec) 
Heartbeat CPU 0 instructions: 1610000001 cycles: 1162280622 heartbeat IPC: 1.28877 cumulative IPC: 1.09477 (Simulation time: 4 hr 24 min 32 sec) 
Heartbeat CPU 0 instructions: 1620000001 cycles: 1169987492 heartbeat IPC: 1.29754 cumulative IPC: 1.0963 (Simulation time: 4 hr 25 min 47 sec) 
Heartbeat CPU 0 instructions: 1630000002 cycles: 1177695618 heartbeat IPC: 1.29733 cumulative IPC: 1.09781 (Simulation time: 4 hr 27 min 4 sec) 
Heartbeat CPU 0 instructions: 1640000003 cycles: 1185419303 heartbeat IPC: 1.29472 cumulative IPC: 1.09927 (Simulation time: 4 hr 28 min 20 sec) 
Heartbeat CPU 0 instructions: 1650000004 cycles: 1193184451 heartbeat IPC: 1.28781 cumulative IPC: 1.10067 (Simulation time: 4 hr 29 min 37 sec) 
Heartbeat CPU 0 instructions: 1660000004 cycles: 1200905503 heartbeat IPC: 1.29516 cumulative IPC: 1.1021 (Simulation time: 4 hr 30 min 53 sec) 
Heartbeat CPU 0 instructions: 1670000001 cycles: 1208676030 heartbeat IPC: 1.28691 cumulative IPC: 1.10345 (Simulation time: 4 hr 32 min 9 sec) 
Heartbeat CPU 0 instructions: 1680000001 cycles: 1216512923 heartbeat IPC: 1.27602 cumulative IPC: 1.10472 (Simulation time: 4 hr 33 min 26 sec) 
Heartbeat CPU 0 instructions: 1690000001 cycles: 1224241445 heartbeat IPC: 1.29391 cumulative IPC: 1.10608 (Simulation time: 4 hr 34 min 42 sec) 
Heartbeat CPU 0 instructions: 1700000002 cycles: 1232056068 heartbeat IPC: 1.27965 cumulative IPC: 1.10733 (Simulation time: 4 hr 35 min 58 sec) 
Heartbeat CPU 0 instructions: 1710000004 cycles: 1239823310 heartbeat IPC: 1.28746 cumulative IPC: 1.10861 (Simulation time: 4 hr 37 min 14 sec) 
Heartbeat CPU 0 instructions: 1720000001 cycles: 1247425467 heartbeat IPC: 1.31542 cumulative IPC: 1.11004 (Simulation time: 4 hr 38 min 28 sec) 
Heartbeat CPU 0 instructions: 1730000001 cycles: 1254807310 heartbeat IPC: 1.35468 cumulative IPC: 1.11168 (Simulation time: 4 hr 39 min 40 sec) 
Heartbeat CPU 0 instructions: 1740000001 cycles: 1262553258 heartbeat IPC: 1.291 cumulative IPC: 1.11292 (Simulation time: 4 hr 40 min 56 sec) 
Heartbeat CPU 0 instructions: 1750000004 cycles: 1270326226 heartbeat IPC: 1.28651 cumulative IPC: 1.11412 (Simulation time: 4 hr 42 min 12 sec) 
Heartbeat CPU 0 instructions: 1760000000 cycles: 1278075005 heartbeat IPC: 1.29053 cumulative IPC: 1.11533 (Simulation time: 4 hr 43 min 28 sec) 
Heartbeat CPU 0 instructions: 1770000001 cycles: 1285873875 heartbeat IPC: 1.28224 cumulative IPC: 1.11648 (Simulation time: 4 hr 44 min 45 sec) 
Heartbeat CPU 0 instructions: 1780000000 cycles: 1293631490 heartbeat IPC: 1.28906 cumulative IPC: 1.11765 (Simulation time: 4 hr 46 min 2 sec) 
Heartbeat CPU 0 instructions: 1790000000 cycles: 1301342101 heartbeat IPC: 1.29691 cumulative IPC: 1.11885 (Simulation time: 4 hr 47 min 18 sec) 
Heartbeat CPU 0 instructions: 1800000000 cycles: 1309113103 heartbeat IPC: 1.28684 cumulative IPC: 1.11997 (Simulation time: 4 hr 48 min 34 sec) 
Heartbeat CPU 0 instructions: 1810000003 cycles: 1316831911 heartbeat IPC: 1.29554 cumulative IPC: 1.12113 (Simulation time: 4 hr 49 min 51 sec) 
Heartbeat CPU 0 instructions: 1820000004 cycles: 1324578944 heartbeat IPC: 1.29082 cumulative IPC: 1.12225 (Simulation time: 4 hr 51 min 7 sec) 
Heartbeat CPU 0 instructions: 1830000000 cycles: 1332280917 heartbeat IPC: 1.29837 cumulative IPC: 1.12339 (Simulation time: 4 hr 52 min 24 sec) 
Heartbeat CPU 0 instructions: 1840000000 cycles: 1339993593 heartbeat IPC: 1.29657 cumulative IPC: 1.12452 (Simulation time: 4 hr 53 min 40 sec) 
Heartbeat CPU 0 instructions: 1850000000 cycles: 1347778224 heartbeat IPC: 1.28458 cumulative IPC: 1.12555 (Simulation time: 4 hr 54 min 57 sec) 
Heartbeat CPU 0 instructions: 1860000001 cycles: 1355606659 heartbeat IPC: 1.27739 cumulative IPC: 1.12654 (Simulation time: 4 hr 56 min 13 sec) 
Heartbeat CPU 0 instructions: 1870000000 cycles: 1363011163 heartbeat IPC: 1.35053 cumulative IPC: 1.1279 (Simulation time: 4 hr 57 min 26 sec) 
Heartbeat CPU 0 instructions: 1880000000 cycles: 1370542810 heartbeat IPC: 1.32773 cumulative IPC: 1.12914 (Simulation time: 4 hr 58 min 40 sec) 
Heartbeat CPU 0 instructions: 1890000001 cycles: 1378265252 heartbeat IPC: 1.29493 cumulative IPC: 1.13018 (Simulation time: 4 hr 59 min 56 sec) 
Heartbeat CPU 0 instructions: 1900000000 cycles: 1386041599 heartbeat IPC: 1.28595 cumulative IPC: 1.13116 (Simulation time: 5 hr 1 min 13 sec) 
Heartbeat CPU 0 instructions: 1910000003 cycles: 1393772168 heartbeat IPC: 1.29357 cumulative IPC: 1.13216 (Simulation time: 5 hr 2 min 30 sec) 
Heartbeat CPU 0 instructions: 1920000001 cycles: 1401471600 heartbeat IPC: 1.2988 cumulative IPC: 1.13319 (Simulation time: 5 hr 3 min 46 sec) 
Heartbeat CPU 0 instructions: 1930000000 cycles: 1409191990 heartbeat IPC: 1.29527 cumulative IPC: 1.13418 (Simulation time: 5 hr 5 min 3 sec) 
Heartbeat CPU 0 instructions: 1940000003 cycles: 1416930561 heartbeat IPC: 1.29223 cumulative IPC: 1.13514 (Simulation time: 5 hr 6 min 20 sec) 
Heartbeat CPU 0 instructions: 1950000000 cycles: 1424656179 heartbeat IPC: 1.29439 cumulative IPC: 1.13611 (Simulation time: 5 hr 7 min 37 sec) 
Heartbeat CPU 0 instructions: 1960000003 cycles: 1432308853 heartbeat IPC: 1.30673 cumulative IPC: 1.13713 (Simulation time: 5 hr 8 min 53 sec) 
Heartbeat CPU 0 instructions: 1970000002 cycles: 1440003352 heartbeat IPC: 1.29963 cumulative IPC: 1.13809 (Simulation time: 5 hr 10 min 9 sec) 
Heartbeat CPU 0 instructions: 1980000003 cycles: 1447760339 heartbeat IPC: 1.28916 cumulative IPC: 1.139 (Simulation time: 5 hr 11 min 25 sec) 
Heartbeat CPU 0 instructions: 1990000000 cycles: 1455537595 heartbeat IPC: 1.2858 cumulative IPC: 1.13987 (Simulation time: 5 hr 12 min 42 sec) 
*** Reached end of trace: traces/654.roms_s-1007B.champsimtrace.xz
Heartbeat CPU 0 instructions: 2000000000 cycles: 1463251854 heartbeat IPC: 1.2963 cumulative IPC: 1.14079 (Simulation time: 5 hr 13 min 58 sec) 
Finished CPU 0 instructions: 1500000001 cycles: 1314882803 cumulative IPC: 1.14079 (Simulation time: 5 hr 13 min 58 sec) 

ChampSim completed all CPUs

Region of Interest Statistics

CPU 0 cumulative IPC: 1.14079 instructions: 1500000001 cycles: 1314882803
cpu0_DTLB TOTAL     ACCESS:  450892794  HIT:  387282266  MISS:   63610528
cpu0_DTLB LOAD      ACCESS:  382674031  HIT:  324665105  MISS:   58008926
cpu0_DTLB RFO       ACCESS:   68218763  HIT:   62617161  MISS:    5601602
cpu0_DTLB PREFETCH  ACCESS:          0  HIT:          0  MISS:          0
cpu0_DTLB WRITEBACK ACCESS:          0  HIT:          0  MISS:          0
cpu0_DTLB TRANSLATION ACCESS:          0  HIT:          0  MISS:          0
cpu0_DTLB PREFETCH  REQUESTED:          0  ISSUED:          0  USEFUL:          0  USELESS:          0
cpu0_DTLB AVERAGE MISS LATENCY: 9.70523 cycles
cpu0_ITLB TOTAL     ACCESS:   31714386  HIT:   31714386  MISS:          0
cpu0_ITLB LOAD      ACCESS:   31714386  HIT:   31714386  MISS:          0
cpu0_ITLB RFO       ACCESS:          0  HIT:          0  MISS:          0
cpu0_ITLB PREFETCH  ACCESS:          0  HIT:          0  MISS:          0
cpu0_ITLB WRITEBACK ACCESS:          0  HIT:          0  MISS:          0
cpu0_ITLB TRANSLATION ACCESS:          0  HIT:          0  MISS:          0
cpu0_ITLB PREFETCH  REQUESTED:          0  ISSUED:          0  USEFUL:          0  USELESS:          0
cpu0_ITLB AVERAGE MISS LATENCY: -nan cycles
cpu0_L1I TOTAL     ACCESS:  130602303  HIT:  130602294  MISS:          9
cpu0_L1I LOAD      ACCESS:  130602303  HIT:  130602294  MISS:          9
cpu0_L1I RFO       ACCESS:          0  HIT:          0  MISS:          0
cpu0_L1I PREFETCH  ACCESS:          0  HIT:          0  MISS:          0
cpu0_L1I WRITEBACK ACCESS:          0  HIT:          0  MISS:          0
cpu0_L1I TRANSLATION ACCESS:          0  HIT:          0  MISS:          0
cpu0_L1I PREFETCH  REQUESTED:          0  ISSUED:          0  USEFUL:          0  USELESS:          0
cpu0_L1I AVERAGE MISS LATENCY: 198.667 cycles
cpu0_STLB TOTAL     ACCESS:   63610528  HIT:   63478522  MISS:     132006
cpu0_STLB LOAD      ACCESS:   58008926  HIT:   57878329  MISS:     130597
cpu0_STLB RFO       ACCESS:    5601602  HIT:    5600193  MISS:       1409
cpu0_STLB PREFETCH  ACCESS:          0  HIT:          0  MISS:          0
cpu0_STLB WRITEBACK ACCESS:          0  HIT:          0  MISS:          0
cpu0_STLB TRANSLATION ACCESS:          0  HIT:          0  MISS:          0
cpu0_STLB PREFETCH  REQUESTED:          0  ISSUED:          0  USEFUL:          0  USELESS:          0
cpu0_STLB AVERAGE MISS LATENCY: 246.019 cycles
cpu0_L1D TOTAL     ACCESS:  536110142  HIT:  513358789  MISS:   22751353
cpu0_L1D LOAD      ACCESS:  416241435  HIT:  397007546  MISS:   19233889
cpu0_L1D RFO       ACCESS:  119737036  HIT:  116305597  MISS:    3431439
cpu0_L1D PREFETCH  ACCESS:          0  HIT:          0  MISS:          0
cpu0_L1D WRITEBACK ACCESS:          0  HIT:          0  MISS:          0
cpu0_L1D TRANSLATION ACCESS:     131671  HIT:      45646  MISS:      86025
cpu0_L1D PREFETCH  REQUESTED:          0  ISSUED:          0  USEFUL:          0  USELESS:          0
cpu0_L1D AVERAGE MISS LATENCY: 92.3865 cycles
cpu0_L2C TOTAL     ACCESS:   28066809  HIT:   12699514  MISS:   15367295
cpu0_L2C LOAD      ACCESS:   19233277  HIT:    7139578  MISS:   12093699
cpu0_L2C RFO       ACCESS:    3431339  HIT:     203791  MISS:    3227548
cpu0_L2C PREFETCH  ACCESS:          0  HIT:          0  MISS:          0
cpu0_L2C WRITEBACK ACCESS:    5316168  HIT:    5311777  MISS:       4391
cpu0_L2C TRANSLATION ACCESS:      86025  HIT:      44368  MISS:      41657
cpu0_L2C PREFETCH  REQUESTED:          0  ISSUED:          0  USEFUL:          0  USELESS:          0
cpu0_L2C AVERAGE MISS LATENCY: 120.408 cycles
LLC TOTAL     ACCESS:   19970955  HIT:   13403639  MISS:    6567316
LLC LOAD      ACCESS:   12093688  HIT:    6432513  MISS:    5661175
LLC RFO       ACCESS:    3227548  HIT:    2345189  MISS:     882359
LLC PREFETCH  ACCESS:          0  HIT:          0  MISS:          0
LLC WRITEBACK ACCESS:    4608062  HIT:    4605014  MISS:       3048
LLC TRANSLATION ACCESS:      41657  HIT:      20923  MISS:      20734
LLC PREFETCH  REQUESTED:          0  ISSUED:          0  USEFUL:          0  USELESS:          0
LLC AVERAGE MISS LATENCY: 232.622 cycles
~~~~~~~~~~Reuse Distance Profiler output~~~~~~~~~~
0	49978496	4274368
1	24193376	7705088
2	38032144	24742816
3	21471568	15738960
4	19250640	14243248
5	15073600	11373760
6	23196912	18492192
7	17321792	13552144
8	12746128	10880416
9	13860496	11858048
10	15668416	13674848
11	14928192	13379696
12	11435312	9204880
13	9908736	8323840
14	10791232	9656608
15	10395584	8343744
16	7965664	6957536
17	6428992	5126080
18	6415168	4935952
19	8410736	6231664
20	7846128	6835792
21	6515552	5663248
22	6143728	4977264
23	5953488	4692448
24	6488912	5046544
25	6807552	6368288
26	5467872	4987376
27	3591936	3102544
28	3865728	3410496
29	4214544	3782704
30	4916304	4551776
31	5124240	4851152
32	4479536	3899952
33	5053040	4382624
34	4808112	4226336
35	5901440	5299184
36	6494416	5878944
37	6547760	5927264
38	5428048	4690832
39	4099456	3340496
40	4482560	3465728
41	4393328	3513712
42	4193824	3311840
43	4409536	3288592
44	4208928	3501664
45	4844592	3608304
46	4506640	3510640
47	4902656	3757344
48	5287936	4076544
49	6127008	4637040
50	5707392	4343808
51	11237568	9122992
52	6391008	4840704
53	3558672	2929456
54	2766624	2170880
55	2789168	2311568
56	2216128	1593616
57	2330592	1725056
58	1865936	1425760
59	1490880	1049184
60	1813216	1067152
61	1403456	719568
62	1335440	396480
63	847136	442496
64	2092736	1360208
66	1847296	873824
68	844000	580608
70	1248960	990048
72	1149888	722032
74	1434272	395536
76	499808	318816
78	530240	461584
80	790448	699984
82	1046768	903216
84	1071520	718128
86	1383776	1060016
88	1165376	622160
90	896704	789344
92	1161072	1122544
94	1296752	1209360
96	1464208	1264288
98	1575344	1135040
100	1610112	1363344
102	1408384	1247296
104	921056	810112
106	515552	411024
108	618912	473360
110	1368576	1202704
112	3609616	3353600
114	4259984	3937600
116	5411632	4242976
118	10399536	9081328
120	1690176	1432928
122	676240	494080
124	328128	215824
126	238960	162832
128	369808	327504
132	201536	183008
136	147200	127184
140	100064	61616
144	146672	100976
148	221424	167232
152	211120	189600
156	48976	42592
160	13968	12240
164	27792	27408
168	3904	3728
172	41792	41232
176	166208	146992
180	245632	232256
184	20592	19536
188	22304	20960
192	38336	37760
196	11392	10656
200	1952	1872
204	320	272
208	160	144
212	256	224
216	272	256
220	176	176
224	144	112
228	192	176
232	144	144
236	192	176
240	208	192
244	240	240
248	272	256
252	432	384
256	816	816
264	496	416
272	320	288
280	352	320
288	432	432
296	560	544
304	352	304
312	208	176
320	544	512
328	464	432
336	784	752
344	464	432
352	544	512
360	256	256
368	160	144
376	160	128
384	416	384
392	240	224
400	192	176
408	432	400
416	512	464
424	256	240
432	304	272
440	160	128
448	320	304
456	256	224
464	352	320
472	256	224
480	160	144
488	192	176
496	272	224
504	256	208
512	704	640
528	592	528
544	432	384
560	336	240
576	240	240
592	352	320
608	368	336
624	400	352
640	704	704
656	352	320
672	400	352
688	416	384
704	432	384
720	512	432
736	416	368
752	1056	1024
768	2960	2896
784	640	608
800	1184	1136
816	544	512
832	400	352
848	464	384
864	880	816
880	1936	1888
896	5328	5264
912	1216	1136
928	512	432
944	592	560
960	3440	3344
976	2144	2080
992	1216	1184
1008	1056	1024
1024	1888	1856
1056	1472	1296
1088	720	640
1120	1008	944
1152	832	768
1184	880	832
1216	944	768
1248	1312	1264
1280	720	624
1312	992	928
1344	752	656
1376	1056	1008
1408	912	848
1440	5808	5744
1472	263104	263008
1504	68480	68448
1536	3520	3408
1568	2656	2544
1600	1760	1648
1632	8784	8656
1664	1360	1296
1696	4208	4096
1728	1280	1168
1760	1232	1152
1792	1008	976
1824	1120	1024
1856	1648	928
1888	2320	880
1920	7648	1744
1952	48784	41824
1984	469600	453952
2016	5667632	5578128
2048	28911872	26379936
2112	7724176	6939456
2176	74576	70848
2240	278784	269968
2304	1826304	1714448
2368	2038896	1826512
2432	4640	4112
2496	1968	1744
2560	1568	1312
2624	1600	1312
2688	1728	1472
2752	1920	1760
2816	2112	1888
2880	2384	2080
2944	13952	13680
3008	44912	44608
3072	78608	78368
3136	121504	121200
3200	205968	205760
3264	406352	406144
3328	364944	364000
3392	238480	230880
3456	214144	206336
3520	177616	175424
3584	74400	72672
3648	26384	21696
3712	7168	3936
3776	8272	7552
3840	7328	5776
3904	1728	1424
3968	1664	1040
4032	10896	2720
4096	11056	9808
4224	6576	4448
4352	11280	3296
4480	14608	12512
4608	3040480	3026800
4736	11220464	10090800
4864	209120	185520
4992	155792	155344
5120	12672	3888
5248	10112	8960
5376	5152	2800
5504	10992	3216
5632	9008	8880
5760	9520	2800
5888	6752	3856
6016	10160	8624
6144	11824	3104
6272	24672	24160
6400	7840	5936
6528	9584	2128
6656	13744	11920
6784	7408	5904
6912	12640	4832
7040	13824	11920
7168	2736	2336
7296	12064	3296
7424	10448	9792
7552	6544	3888
7680	11872	4352
7808	9408	9392
7936	10896	3920
8064	6560	4240
8192	23408	13120
8448	15744	13632
8704	22608	13584
8960	15696	6672
9216	15152	13136
9472	22720	13552
9728	18144	7680
9984	19952	12928
10240	17232	13408
10496	20848	11824
10752	17120	8096
11008	16656	14048
11264	23936	13904
11520	16032	7008
11776	17584	13968
12032	24880	17584
12288	26096	16992
12544	40880	30592
12800	124688	122272
13056	1010240	1001216
13312	2540848	2531824
13568	1778800	1776784
13824	209056	200240
14080	20128	9456
14336	19216	11024
14592	13952	11104
14848	19856	10752
15104	14096	5024
15360	12640	10608
15616	22784	12400
15872	12368	3552
16128	14944	10656
16384	31936	17104
16896	30784	20432
17408	25408	9392
17920	48640	41328
18432	456000	441664
18944	40592	32768
19456	14960	7744
19968	22896	8352
20480	25024	17792
20992	22304	7856
21504	22832	15616
22016	14784	7520
22528	22288	7840
23040	21376	14160
23552	22288	7744
24064	22592	15296
24576	17360	10112
25088	30112	15520
25600	21056	13696
26112	26000	11408
26624	8624	8624
27136	3104	3072
27648	3760	3728
28160	4192	4016
28672	4592	4384
29184	3760	3648
29696	15312	15280
30208	3760	3744
30720	4544	4448
31232	4256	4128
31744	3744	3568
32256	3728	3664
32768	8208	8016
33792	6880	6848
34816	1200	1024
35840	784	784
36864	1152	1008
37888	2880	2640
38912	992	736
39936	1888	1664
40960	2800	2384
41984	8992	8560
43008	7600	7504
44032	7904	7680
45056	7488	7328
46080	7856	7632
47104	8000	7872
48128	7136	6976
49152	7232	7120
50176	9088	8848
51200	5888	5504
52224	1168	912
53248	1136	816
54272	2720	2272
55296	1616	1184
56320	1168	976
57344	1440	1168
58368	5712	5328
59392	8144	7664
60416	8112	7952
61440	7520	7392
62464	11216	9968
63488	10192	9296
64512	9392	8480
65536	18336	17344
67584	14688	13280
69632	3872	3408
71680	3856	3040
73728	2880	2080
75776	14736	13312
77824	17296	16432
79872	19328	18480
81920	18816	17392
83968	17376	16608
86016	5760	5024
88064	4048	3136
90112	5664	3808
92160	11808	10608
94208	19392	17984
96256	17728	16736
98304	18400	16704
100352	18656	17408
102400	10032	8640
104448	6224	4944
106496	6992	4624
108544	8112	6384
110592	17184	15888
112640	18320	16976
114688	18688	17120
116736	21408	19136
118784	19408	16784
120832	5648	4368
122880	5552	3568
124928	5008	3824
126976	13488	11952
129024	21712	20768
131072	98416	92448
135168	67248	63632
139264	34784	31616
143360	80800	75584
147456	47904	43984
151552	32880	29904
155648	16704	11824
159744	26288	21824
163840	39920	35376
167936	40016	36528
172032	15504	9664
176128	20672	16704
180224	39456	35248
184320	40560	36112
188416	18144	13744
192512	21184	17040
196608	42144	37232
200704	43056	37536
204800	24624	20048
208896	22016	17312
212992	43856	38144
217088	41952	37616
221184	31072	25472
225280	15648	10256
229376	38112	32544
233472	45424	39584
237568	33120	27888
241664	15216	9488
245760	32992	27760
249856	44176	38640
253952	38944	33040
258048	18624	12880
262144	74720	63088
270336	63072	50240
278528	74784	61792
286720	66176	54592
294912	70432	56688
303104	72512	61360
311296	65776	51312
319488	80320	65904
327680	64384	50464
335872	85216	69920
344064	59312	45824
352256	89488	76048
360448	57424	41984
368640	94432	80192
376832	55984	40480
385024	94736	79200
393216	56560	40400
401408	97488	81632
409600	59696	44144
417792	94496	77568
425984	66224	49616
434176	92384	74672
442368	71840	54992
450560	91568	72528
458752	77152	59840
466944	87504	69008
475136	88032	68352
483328	82032	62752
491520	92528	73504
499712	81504	60832
507904	94624	76976
516096	77216	57072
524288	175840	135008
540672	181120	139264
557056	184128	140432
573440	196000	137776
589824	194032	143840
606208	194432	149136
622592	195248	150272
638976	198656	153264
655360	135120	88976
671744	134768	88624
688128	132080	87728
704512	134528	89184
720896	133552	87488
737280	139248	92528
753664	134816	87392
770048	133616	88000
786432	137568	88720
802816	137856	91904
819200	133072	87152
835584	134112	87248
851968	132816	88256
868352	137584	90288
884736	132800	86096
901120	138336	91216
917504	130064	83792
933888	129200	83904
950272	136000	86880
966656	130128	84880
983040	131600	84832
999424	132160	85552
1015808	133136	86464
1032192	131456	84672
1048576	272864	175328
1081344	246736	154160
1114112	232016	146272
1146880	208032	130816
1179648	190768	119536
1212416	180992	113040
1245184	173184	107696
1277952	161328	101792
1310720	151088	97088
1343488	140816	89088
1376256	130128	83280
1409024	121744	77728
1441792	114608	73712
1474560	104048	67200
1507328	92768	62000
1540096	82272	54896
1572864	74384	49728
1605632	61888	42432
1638400	56752	39136
1671168	47472	32112
1703936	44976	29296
1736704	38160	24512
1769472	39840	25952
1802240	36896	24704
1835008	36672	24144
1867776	32944	21392
1900544	35280	23360
1933312	34384	21936
1966080	33696	21936
1998848	33792	22304
2031616	31088	20384
2064384	32336	21952
2097152	63664	40944
2162688	61664	39808
2228224	62560	41616
2293760	64000	41616
2359296	63792	41472
2424832	64384	42080
2490368	51296	32480
2555904	42080	26816
2621440	36160	23920
2686976	31216	20176
2752512	26432	16944
2818048	21728	14032
2883584	16304	11408
2949120	11056	8080
3014656	5968	5040
3080192	2832	2160
3145728	4768	1408
3211264	1504	1424
3276800	800	752
3342336	1968	1952
3407872	2640	2624
3473408	816	816
3538944	2000	1904
3604480	2016	1808
3670016	2528	2096
3735552	4016	1040
3801088	1952	1024
3866624	5840	2784
3932160	4272	2544
3997696	6480	2368
4063232	4368	2208
4128768	3792	2640
4194304	7648	4896
4325376	7232	4256
4456448	7728	4624
4587520	7904	2576
4718592	9328	5728
4849664	6336	4192
4980736	5216	2112
5111808	6544	4528
5242880	8064	4960
5373952	6336	3616
5505024	6288	1648
5636096	10480	4320
5767168	10560	7664
5898240	7504	2624
6029312	7248	5248
6160384	7248	5168
6291456	6144	1456
6422528	8160	3952
6553600	6272	3168
6684672	7888	4736
6815744	6704	3664
6946816	6432	3888
7077888	7216	3488
7208960	7984	3264
7340032	6944	2784
7471104	5904	2800
7602176	6688	2592
7733248	6608	3664
7864320	8800	4560
7995392	9088	5280
8126464	7456	3520
8257536	8240	4928
8388608	11456	5920
8650752	12208	7376
8912896	13536	6656
9175040	14320	7872
9437184	15888	8320
9699328	15072	9248
9961472	14576	8448
10223616	14496	6320
10485760	14400	7728
10747904	18544	10960
11010048	10080	5600
11272192	7824	2976
11534336	11120	5184
11796480	11376	5520
12058624	8112	3472
12320768	11232	4144
12582912	14928	6640
12845056	9296	3440
13107200	12464	5456
13369344	14608	7248
13631488	10288	3472
13893632	8288	5552
14155776	179856	174496
14417920	13424	7024
14680064	12512	6912
14942208	8288	4160
15204352	9360	3536
15466496	4640	784
15728640	3648	960
15990784	2768	720
16252928	2144	1088
16515072	2944	848
16777216	9168	2032
17301504	8048	1936
17825792	6816	1648
18350080	1536	1520
18874368	862512	862480
19398656	16	16
19922944	16	16
20447232	16	16
20971520	16	16
21495808	0	0
22020096	0	0
22544384	32	32
23068672	16	16
23592960	16	16
24117248	16	16
24641536	112	112
25165824	128	128
25690112	0	0
26214400	32	32
26738688	16	16
27262976	0	0
27787264	48	48
28311552	48	48
28835840	32	32
29360128	32	32
29884416	64	64
30408704	0	0
30932992	0	0
31457280	0	0
31981568	32	32
32505856	0	0
33030144	48	48
33554432	16	16
34603008	80	80
35651584	32	32
36700160	112	112
37748736	80	80
38797312	80	80
39845888	48	48
40894464	80	80
41943040	64	64
42991616	112	112
44040192	208	208
45088768	208	208
46137344	128	128
47185920	160	160
48234496	112	112
49283072	288	288
50331648	112	112
51380224	48	48
52428800	128	128
53477376	64	64
54525952	128	128
55574528	176	176
56623104	144	144
57671680	64	64
58720256	112	112
59768832	208	208
60817408	288	288
61865984	128	128
62914560	144	144
63963136	192	192
65011712	176	176
66060288	160	160
67108864	432	432
69206016	288	288
71303168	496	496
73400320	560	560
75497472	416	416
77594624	320	320
79691776	304	304
81788928	624	624
83886080	384	384
85983232	576	576
88080384	624	624
90177536	384	384
92274688	656	656
94371840	752	752
96468992	656	640
98566144	672	672
100663296	864	864
102760448	688	688
104857600	496	496
106954752	672	672
109051904	560	560
111149056	992	992
113246208	736	736
115343360	576	576
117440512	736	736
119537664	592	592
121634816	640	640
123731968	576	576
125829120	544	544
127926272	464	464
130023424	624	624
132120576	656	656
134217728	1216	1216
138412032	1184	1184
142606336	1328	1328
146800640	1392	1392
150994944	1104	1104
155189248	1056	1056
159383552	1328	1328
163577856	1120	1120
167772160	1248	1248
171966464	1344	1344
176160768	1856	1856
180355072	1280	1280
184549376	1360	1360
188743680	1200	1200
192937984	1264	1264
197132288	1168	1168
201326592	1456	1456
205520896	1696	1696
209715200	1152	1152
213909504	1344	1344
218103808	1424	1424
222298112	1520	1520
226492416	1360	1360
230686720	1520	1520
234881024	1616	1616
239075328	1424	1424
243269632	1504	1504
247463936	1456	1456
251658240	1376	1376
255852544	1344	1344
260046848	1360	1360
264241152	1696	1696
268435456	2640	2640
276824064	3024	3024
285212672	2848	2848
293601280	2928	2928
301989888	3440	3440
310378496	3040	3040
318767104	2752	2752
327155712	2400	2400
335544320	3008	3008
343932928	2976	2976
352321536	3168	3168
360710144	3152	3152
369098752	2928	2928
377487360	3088	3088
385875968	2832	2832
394264576	3312	3312
402653184	2832	2832
411041792	3280	3280
419430400	2960	2960
427819008	2848	2848
436207616	3056	3056
444596224	2592	2592
452984832	2544	2544
461373440	2608	2608
469762048	2224	2224
478150656	2992	2992
486539264	2288	2288
494927872	2016	2016
503316480	1776	1776
511705088	1536	1536
520093696	1968	1968
528482304	1408	1408
536870912	3392	3392
553648128	3456	3456
570425344	3296	3296
587202560	3312	3312
603979776	2576	2576
620756992	1824	1824
637534208	1456	1456
654311424	1008	1008
671088640	176	176
687865856	0	0
704643072	0	0
721420288	0	0
738197504	0	0
754974720	0	0
771751936	0	0
788529152	0	0
805306368	0	0
822083584	0	0
838860800	0	0
855638016	0	0
872415232	0	0
889192448	0	0
905969664	0	0
922746880	0	0
939524096	0	0
956301312	0	0
973078528	0	0
989855744	0	0
1006632960	0	0
1023410176	0	0
1040187392	0	0
1056964608	0	0
1073741824	0	0
1107296256	0	0
1140850688	0	0
1174405120	0	0
1207959552	0	0
1241513984	0	0
1275068416	0	0
1308622848	0	0
1342177280	0	0
1375731712	0	0
1409286144	0	0
1442840576	0	0
1476395008	0	0
1509949440	0	0
1543503872	0	0
1577058304	0	0
1610612736	0	0
1644167168	0	0
1677721600	0	0
1711276032	0	0
1744830464	0	0
1778384896	0	0
1811939328	0	0
1845493760	0	0
1879048192	0	0
1912602624	0	0
1946157056	0	0
1979711488	0	0
2013265920	0	0
2046820352	0	0
2080374784	0	0
2113929216	0	0
2147483648	0	0
2214592512	0	0
2281701376	0	0
2348810240	0	0
2415919104	0	0
2483027968	0	0
2550136832	0	0
2617245696	0	0
2684354560	0	0
2751463424	0	0
2818572288	0	0
2885681152	0	0
2952790016	0	0
3019898880	0	0
3087007744	0	0
3154116608	0	0
3221225472	0	0
3288334336	0	0
3355443200	0	0
3422552064	0	0
3489660928	0	0
3556769792	0	0
3623878656	0	0
3690987520	0	0
3758096384	0	0
3825205248	0	0
3892314112	0	0
3959422976	0	0
4026531840	0	0
4093640704	0	0
4160749568	0	0
4227858432	0	0
~~~~~~~~~~Reuse Distance Profiler output end~~~~~~~~~~

DRAM Statistics
 CHANNEL 0
 RQ ROW_BUFFER_HIT:      44323  ROW_BUFFER_MISS:    6507202
 DBUS AVG_CONGESTED_CYCLE:    3.91947
 WQ ROW_BUFFER_HIT:     223741  ROW_BUFFER_MISS:     908677  FULL:          0


CPU 0 Branch Prediction Accuracy: 99.659% MPKI: 0.224803 Average ROB Occupancy at Mispredict: 286.838
Branch type MPKI
BRANCH_DIRECT_JUMP: 6.66667e-07
BRANCH_INDIRECT: 0
BRANCH_CONDITIONAL: 0.224801
BRANCH_DIRECT_CALL: 6.66667e-07
BRANCH_INDIRECT_CALL: 0
BRANCH_RETURN: 6.66667e-07

