
*** ChampSim Multicore Out-of-Order Simulator ***

Warmup Instructions: 500000000
Simulation Instructions: 1500000000
Number of CPUs: 1
Off-chip DRAM Size: 4 GiB Channels: 1 Width: 64-bit Data Rate: 3200 MT/s

VirtualMemory physical capacity: 8588881920 num_ppages: 2096895
VirtualMemory page size: 4096 log2_page_size: 12

CPU 0 runs traces/654.roms_s-294B.champsimtrace.xz
CPU 0 Bimodal branch predictor
Basic BTB sets: 1024 ways: 8 indirect buffer size: 4096 RAS size: 64
Initializing LRU.
Initializing LRU.
Initializing LRU.
Initializing LRU.
Initializing rdLRU.
Initializing LRU.
Initializing LRU.
Heartbeat CPU 0 instructions: 10000000 cycles: 3828154 heartbeat IPC: 2.61223 cumulative IPC: 2.61223 (Simulation time: 0 hr 1 min 29 sec) 
Heartbeat CPU 0 instructions: 20000001 cycles: 7656176 heartbeat IPC: 2.61232 cumulative IPC: 2.61227 (Simulation time: 0 hr 3 min 0 sec) 
Heartbeat CPU 0 instructions: 30000001 cycles: 11484199 heartbeat IPC: 2.61231 cumulative IPC: 2.61229 (Simulation time: 0 hr 4 min 29 sec) 
Heartbeat CPU 0 instructions: 40000003 cycles: 15312228 heartbeat IPC: 2.61231 cumulative IPC: 2.61229 (Simulation time: 0 hr 6 min 3 sec) 
Heartbeat CPU 0 instructions: 50000004 cycles: 19140254 heartbeat IPC: 2.61231 cumulative IPC: 2.6123 (Simulation time: 0 hr 7 min 38 sec) 
Heartbeat CPU 0 instructions: 60000002 cycles: 22968294 heartbeat IPC: 2.6123 cumulative IPC: 2.6123 (Simulation time: 0 hr 9 min 3 sec) 
Heartbeat CPU 0 instructions: 70000002 cycles: 26796314 heartbeat IPC: 2.61232 cumulative IPC: 2.6123 (Simulation time: 0 hr 10 min 38 sec) 
Heartbeat CPU 0 instructions: 80000001 cycles: 30624334 heartbeat IPC: 2.61232 cumulative IPC: 2.6123 (Simulation time: 0 hr 12 min 12 sec) 
Heartbeat CPU 0 instructions: 90000000 cycles: 34452357 heartbeat IPC: 2.61231 cumulative IPC: 2.6123 (Simulation time: 0 hr 13 min 46 sec) 
Heartbeat CPU 0 instructions: 100000000 cycles: 38280378 heartbeat IPC: 2.61232 cumulative IPC: 2.6123 (Simulation time: 0 hr 15 min 19 sec) 
Heartbeat CPU 0 instructions: 110000003 cycles: 42107660 heartbeat IPC: 2.61282 cumulative IPC: 2.61235 (Simulation time: 0 hr 16 min 47 sec) 
Heartbeat CPU 0 instructions: 120000003 cycles: 45935680 heartbeat IPC: 2.61232 cumulative IPC: 2.61235 (Simulation time: 0 hr 18 min 19 sec) 
Heartbeat CPU 0 instructions: 130000001 cycles: 49763696 heartbeat IPC: 2.61232 cumulative IPC: 2.61235 (Simulation time: 0 hr 19 min 51 sec) 
Heartbeat CPU 0 instructions: 140000001 cycles: 53591714 heartbeat IPC: 2.61232 cumulative IPC: 2.61234 (Simulation time: 0 hr 21 min 18 sec) 
Heartbeat CPU 0 instructions: 150000000 cycles: 57419734 heartbeat IPC: 2.61232 cumulative IPC: 2.61234 (Simulation time: 0 hr 22 min 41 sec) 
Heartbeat CPU 0 instructions: 160000003 cycles: 61247756 heartbeat IPC: 2.61232 cumulative IPC: 2.61234 (Simulation time: 0 hr 24 min 7 sec) 
Heartbeat CPU 0 instructions: 170000001 cycles: 65075773 heartbeat IPC: 2.61232 cumulative IPC: 2.61234 (Simulation time: 0 hr 25 min 27 sec) 
Heartbeat CPU 0 instructions: 180000000 cycles: 68903791 heartbeat IPC: 2.61232 cumulative IPC: 2.61234 (Simulation time: 0 hr 26 min 58 sec) 
Heartbeat CPU 0 instructions: 190000000 cycles: 72731807 heartbeat IPC: 2.61232 cumulative IPC: 2.61234 (Simulation time: 0 hr 27 min 57 sec) 
Heartbeat CPU 0 instructions: 200000002 cycles: 76559826 heartbeat IPC: 2.61232 cumulative IPC: 2.61234 (Simulation time: 0 hr 29 min 17 sec) 
Heartbeat CPU 0 instructions: 210000001 cycles: 80387843 heartbeat IPC: 2.61232 cumulative IPC: 2.61234 (Simulation time: 0 hr 30 min 46 sec) 
Heartbeat CPU 0 instructions: 220000002 cycles: 84215128 heartbeat IPC: 2.61282 cumulative IPC: 2.61236 (Simulation time: 0 hr 32 min 5 sec) 
Heartbeat CPU 0 instructions: 230000003 cycles: 88043154 heartbeat IPC: 2.61231 cumulative IPC: 2.61236 (Simulation time: 0 hr 33 min 4 sec) 
Heartbeat CPU 0 instructions: 240000002 cycles: 91871173 heartbeat IPC: 2.61232 cumulative IPC: 2.61235 (Simulation time: 0 hr 34 min 17 sec) 
Heartbeat CPU 0 instructions: 250000000 cycles: 95699194 heartbeat IPC: 2.61232 cumulative IPC: 2.61235 (Simulation time: 0 hr 35 min 37 sec) 
Heartbeat CPU 0 instructions: 260000000 cycles: 99527216 heartbeat IPC: 2.61232 cumulative IPC: 2.61235 (Simulation time: 0 hr 36 min 53 sec) 
Heartbeat CPU 0 instructions: 270000004 cycles: 103355244 heartbeat IPC: 2.61231 cumulative IPC: 2.61235 (Simulation time: 0 hr 38 min 8 sec) 
Heartbeat CPU 0 instructions: 280000000 cycles: 107183267 heartbeat IPC: 2.61231 cumulative IPC: 2.61235 (Simulation time: 0 hr 39 min 42 sec) 
Heartbeat CPU 0 instructions: 290000000 cycles: 111011289 heartbeat IPC: 2.61232 cumulative IPC: 2.61235 (Simulation time: 0 hr 41 min 5 sec) 
Heartbeat CPU 0 instructions: 300000003 cycles: 114839315 heartbeat IPC: 2.61231 cumulative IPC: 2.61235 (Simulation time: 0 hr 42 min 40 sec) 
Heartbeat CPU 0 instructions: 310000003 cycles: 118667335 heartbeat IPC: 2.61232 cumulative IPC: 2.61234 (Simulation time: 0 hr 44 min 1 sec) 
Heartbeat CPU 0 instructions: 320000000 cycles: 122495353 heartbeat IPC: 2.61232 cumulative IPC: 2.61234 (Simulation time: 0 hr 45 min 9 sec) 
Heartbeat CPU 0 instructions: 330000000 cycles: 126322638 heartbeat IPC: 2.61282 cumulative IPC: 2.61236 (Simulation time: 0 hr 46 min 23 sec) 
Heartbeat CPU 0 instructions: 340000002 cycles: 130150659 heartbeat IPC: 2.61232 cumulative IPC: 2.61236 (Simulation time: 0 hr 47 min 36 sec) 
Heartbeat CPU 0 instructions: 350000002 cycles: 133978678 heartbeat IPC: 2.61232 cumulative IPC: 2.61236 (Simulation time: 0 hr 49 min 1 sec) 
Heartbeat CPU 0 instructions: 360000004 cycles: 137806698 heartbeat IPC: 2.61232 cumulative IPC: 2.61235 (Simulation time: 0 hr 50 min 38 sec) 
Heartbeat CPU 0 instructions: 370000000 cycles: 141634716 heartbeat IPC: 2.61232 cumulative IPC: 2.61235 (Simulation time: 0 hr 51 min 53 sec) 
Heartbeat CPU 0 instructions: 380000001 cycles: 145462732 heartbeat IPC: 2.61232 cumulative IPC: 2.61235 (Simulation time: 0 hr 53 min 17 sec) 
Heartbeat CPU 0 instructions: 390000003 cycles: 149290754 heartbeat IPC: 2.61232 cumulative IPC: 2.61235 (Simulation time: 0 hr 54 min 28 sec) 
Heartbeat CPU 0 instructions: 400000002 cycles: 153118775 heartbeat IPC: 2.61232 cumulative IPC: 2.61235 (Simulation time: 0 hr 55 min 58 sec) 
Heartbeat CPU 0 instructions: 410000001 cycles: 156946791 heartbeat IPC: 2.61232 cumulative IPC: 2.61235 (Simulation time: 0 hr 57 min 27 sec) 
Heartbeat CPU 0 instructions: 420000001 cycles: 160774812 heartbeat IPC: 2.61232 cumulative IPC: 2.61235 (Simulation time: 0 hr 58 min 41 sec) 
Heartbeat CPU 0 instructions: 430000003 cycles: 164602835 heartbeat IPC: 2.61231 cumulative IPC: 2.61235 (Simulation time: 0 hr 59 min 52 sec) 
Heartbeat CPU 0 instructions: 440000002 cycles: 168430116 heartbeat IPC: 2.61282 cumulative IPC: 2.61236 (Simulation time: 1 hr 1 min 2 sec) 
Heartbeat CPU 0 instructions: 450000004 cycles: 172258136 heartbeat IPC: 2.61232 cumulative IPC: 2.61236 (Simulation time: 1 hr 2 min 30 sec) 
Heartbeat CPU 0 instructions: 460000003 cycles: 176086159 heartbeat IPC: 2.61231 cumulative IPC: 2.61236 (Simulation time: 1 hr 3 min 59 sec) 
Heartbeat CPU 0 instructions: 470000000 cycles: 179914177 heartbeat IPC: 2.61232 cumulative IPC: 2.61236 (Simulation time: 1 hr 5 min 6 sec) 
Heartbeat CPU 0 instructions: 480000001 cycles: 183742191 heartbeat IPC: 2.61232 cumulative IPC: 2.61236 (Simulation time: 1 hr 6 min 27 sec) 
Heartbeat CPU 0 instructions: 490000002 cycles: 187570214 heartbeat IPC: 2.61231 cumulative IPC: 2.61235 (Simulation time: 1 hr 7 min 34 sec) 
Heartbeat CPU 0 instructions: 500000001 cycles: 191398232 heartbeat IPC: 2.61232 cumulative IPC: 2.61235 (Simulation time: 1 hr 9 min 0 sec) 

Warmup complete CPU 0 instructions: 500000001 cycles: 191398232 (Simulation time: 1 hr 9 min 0 sec) 

Heartbeat CPU 0 instructions: 510000002 cycles: 204518668 heartbeat IPC: 0.76217 cumulative IPC: 0.76217 (Simulation time: 1 hr 12 min 1 sec) 
Heartbeat CPU 0 instructions: 520000000 cycles: 217629245 heartbeat IPC: 0.762743 cumulative IPC: 0.762456 (Simulation time: 1 hr 14 min 19 sec) 
Heartbeat CPU 0 instructions: 530000002 cycles: 230751342 heartbeat IPC: 0.762073 cumulative IPC: 0.762329 (Simulation time: 1 hr 16 min 35 sec) 
Heartbeat CPU 0 instructions: 540000004 cycles: 243871371 heartbeat IPC: 0.762194 cumulative IPC: 0.762295 (Simulation time: 1 hr 19 min 54 sec) 
Heartbeat CPU 0 instructions: 550000004 cycles: 256986318 heartbeat IPC: 0.762489 cumulative IPC: 0.762334 (Simulation time: 1 hr 22 min 29 sec) 
Heartbeat CPU 0 instructions: 560000000 cycles: 270106218 heartbeat IPC: 0.762201 cumulative IPC: 0.762311 (Simulation time: 1 hr 24 min 55 sec) 
Heartbeat CPU 0 instructions: 570000003 cycles: 283240283 heartbeat IPC: 0.761379 cumulative IPC: 0.762178 (Simulation time: 1 hr 27 min 13 sec) 
Heartbeat CPU 0 instructions: 580000000 cycles: 296362004 heartbeat IPC: 0.762095 cumulative IPC: 0.762168 (Simulation time: 1 hr 30 min 4 sec) 
Heartbeat CPU 0 instructions: 590000003 cycles: 309483193 heartbeat IPC: 0.762126 cumulative IPC: 0.762163 (Simulation time: 1 hr 32 min 54 sec) 
Heartbeat CPU 0 instructions: 600000000 cycles: 322605540 heartbeat IPC: 0.762059 cumulative IPC: 0.762153 (Simulation time: 1 hr 36 min 5 sec) 
Heartbeat CPU 0 instructions: 610000002 cycles: 335723896 heartbeat IPC: 0.762291 cumulative IPC: 0.762165 (Simulation time: 1 hr 38 min 29 sec) 
Heartbeat CPU 0 instructions: 620000003 cycles: 348844351 heartbeat IPC: 0.762169 cumulative IPC: 0.762165 (Simulation time: 1 hr 40 min 39 sec) 
Heartbeat CPU 0 instructions: 630000001 cycles: 361029282 heartbeat IPC: 0.820686 cumulative IPC: 0.766369 (Simulation time: 1 hr 43 min 18 sec) 
Heartbeat CPU 0 instructions: 640000003 cycles: 369623762 heartbeat IPC: 1.16354 cumulative IPC: 0.785522 (Simulation time: 1 hr 44 min 29 sec) 
Heartbeat CPU 0 instructions: 650000001 cycles: 378216142 heartbeat IPC: 1.16382 cumulative IPC: 0.802921 (Simulation time: 1 hr 45 min 46 sec) 
Heartbeat CPU 0 instructions: 660000001 cycles: 386873895 heartbeat IPC: 1.15503 cumulative IPC: 0.818516 (Simulation time: 1 hr 46 min 50 sec) 
Heartbeat CPU 0 instructions: 670000000 cycles: 395631336 heartbeat IPC: 1.14189 cumulative IPC: 0.832382 (Simulation time: 1 hr 47 min 52 sec) 
Heartbeat CPU 0 instructions: 680000000 cycles: 404366519 heartbeat IPC: 1.1448 cumulative IPC: 0.845196 (Simulation time: 1 hr 48 min 51 sec) 
Heartbeat CPU 0 instructions: 690000001 cycles: 413175552 heartbeat IPC: 1.1352 cumulative IPC: 0.856715 (Simulation time: 1 hr 50 min 18 sec) 
Heartbeat CPU 0 instructions: 700000001 cycles: 421803986 heartbeat IPC: 1.15896 cumulative IPC: 0.868034 (Simulation time: 1 hr 51 min 45 sec) 
Heartbeat CPU 0 instructions: 710000000 cycles: 430496533 heartbeat IPC: 1.15041 cumulative IPC: 0.8783 (Simulation time: 1 hr 53 min 7 sec) 
Heartbeat CPU 0 instructions: 720000002 cycles: 439208989 heartbeat IPC: 1.14778 cumulative IPC: 0.887774 (Simulation time: 1 hr 54 min 43 sec) 
Heartbeat CPU 0 instructions: 730000001 cycles: 447818799 heartbeat IPC: 1.16147 cumulative IPC: 0.896964 (Simulation time: 1 hr 56 min 0 sec) 
Heartbeat CPU 0 instructions: 740000000 cycles: 456564108 heartbeat IPC: 1.14347 cumulative IPC: 0.905094 (Simulation time: 1 hr 57 min 24 sec) 
Heartbeat CPU 0 instructions: 750000000 cycles: 465241566 heartbeat IPC: 1.15241 cumulative IPC: 0.912931 (Simulation time: 1 hr 58 min 33 sec) 
Heartbeat CPU 0 instructions: 760000003 cycles: 474008189 heartbeat IPC: 1.14069 cumulative IPC: 0.919996 (Simulation time: 2 hr 0 min 15 sec) 
Heartbeat CPU 0 instructions: 770000001 cycles: 482773363 heartbeat IPC: 1.14088 cumulative IPC: 0.926641 (Simulation time: 2 hr 1 min 49 sec) 
Heartbeat CPU 0 instructions: 780000000 cycles: 491499246 heartbeat IPC: 1.14602 cumulative IPC: 0.933019 (Simulation time: 2 hr 3 min 19 sec) 
Heartbeat CPU 0 instructions: 790000000 cycles: 500168136 heartbeat IPC: 1.15355 cumulative IPC: 0.939211 (Simulation time: 2 hr 4 min 56 sec) 
Heartbeat CPU 0 instructions: 800000000 cycles: 508705423 heartbeat IPC: 1.17133 cumulative IPC: 0.945456 (Simulation time: 2 hr 6 min 25 sec) 
Heartbeat CPU 0 instructions: 810000003 cycles: 517376619 heartbeat IPC: 1.15324 cumulative IPC: 0.950983 (Simulation time: 2 hr 7 min 39 sec) 
Heartbeat CPU 0 instructions: 820000000 cycles: 525866432 heartbeat IPC: 1.17788 cumulative IPC: 0.956743 (Simulation time: 2 hr 8 min 49 sec) 
Heartbeat CPU 0 instructions: 830000001 cycles: 534397539 heartbeat IPC: 1.17218 cumulative IPC: 0.962101 (Simulation time: 2 hr 10 min 2 sec) 
Heartbeat CPU 0 instructions: 840000000 cycles: 543113886 heartbeat IPC: 1.14727 cumulative IPC: 0.96669 (Simulation time: 2 hr 11 min 39 sec) 
Heartbeat CPU 0 instructions: 850000003 cycles: 551891967 heartbeat IPC: 1.1392 cumulative IPC: 0.970891 (Simulation time: 2 hr 12 min 54 sec) 
Heartbeat CPU 0 instructions: 860000000 cycles: 560660117 heartbeat IPC: 1.14049 cumulative IPC: 0.974918 (Simulation time: 2 hr 14 min 11 sec) 
Heartbeat CPU 0 instructions: 870000004 cycles: 569411161 heartbeat IPC: 1.14272 cumulative IPC: 0.978803 (Simulation time: 2 hr 15 min 24 sec) 
Heartbeat CPU 0 instructions: 880000001 cycles: 578252992 heartbeat IPC: 1.13099 cumulative IPC: 0.982281 (Simulation time: 2 hr 16 min 58 sec) 
Heartbeat CPU 0 instructions: 890000004 cycles: 586942026 heartbeat IPC: 1.15088 cumulative IPC: 0.985984 (Simulation time: 2 hr 18 min 37 sec) 
Heartbeat CPU 0 instructions: 900000000 cycles: 595614113 heartbeat IPC: 1.15312 cumulative IPC: 0.98957 (Simulation time: 2 hr 19 min 53 sec) 
Heartbeat CPU 0 instructions: 910000001 cycles: 604249545 heartbeat IPC: 1.15802 cumulative IPC: 0.993094 (Simulation time: 2 hr 21 min 21 sec) 
Heartbeat CPU 0 instructions: 920000001 cycles: 612784344 heartbeat IPC: 1.17167 cumulative IPC: 0.996711 (Simulation time: 2 hr 23 min 8 sec) 
Heartbeat CPU 0 instructions: 930000000 cycles: 621284813 heartbeat IPC: 1.17641 cumulative IPC: 1.00026 (Simulation time: 2 hr 24 min 48 sec) 
Heartbeat CPU 0 instructions: 940000002 cycles: 629967299 heartbeat IPC: 1.15174 cumulative IPC: 1.00326 (Simulation time: 2 hr 26 min 29 sec) 
Heartbeat CPU 0 instructions: 950000001 cycles: 638742172 heartbeat IPC: 1.13962 cumulative IPC: 1.00594 (Simulation time: 2 hr 28 min 11 sec) 
Heartbeat CPU 0 instructions: 960000004 cycles: 647311078 heartbeat IPC: 1.16701 cumulative IPC: 1.00896 (Simulation time: 2 hr 29 min 56 sec) 
Heartbeat CPU 0 instructions: 970000001 cycles: 656011364 heartbeat IPC: 1.14939 cumulative IPC: 1.01159 (Simulation time: 2 hr 31 min 42 sec) 
Heartbeat CPU 0 instructions: 980000000 cycles: 664856457 heartbeat IPC: 1.13057 cumulative IPC: 1.01382 (Simulation time: 2 hr 32 min 42 sec) 
Heartbeat CPU 0 instructions: 990000001 cycles: 673762129 heartbeat IPC: 1.12288 cumulative IPC: 1.01583 (Simulation time: 2 hr 33 min 41 sec) 
Heartbeat CPU 0 instructions: 1000000002 cycles: 682658244 heartbeat IPC: 1.12409 cumulative IPC: 1.01779 (Simulation time: 2 hr 34 min 38 sec) 
Heartbeat CPU 0 instructions: 1010000003 cycles: 691499945 heartbeat IPC: 1.131 cumulative IPC: 1.01979 (Simulation time: 2 hr 35 min 36 sec) 
Heartbeat CPU 0 instructions: 1020000000 cycles: 700063614 heartbeat IPC: 1.16772 cumulative IPC: 1.02228 (Simulation time: 2 hr 36 min 31 sec) 
Heartbeat CPU 0 instructions: 1030000002 cycles: 708532023 heartbeat IPC: 1.18086 cumulative IPC: 1.02488 (Simulation time: 2 hr 37 min 26 sec) 
Heartbeat CPU 0 instructions: 1040000001 cycles: 717134606 heartbeat IPC: 1.16244 cumulative IPC: 1.02713 (Simulation time: 2 hr 38 min 24 sec) 
Heartbeat CPU 0 instructions: 1050000000 cycles: 725730354 heartbeat IPC: 1.16337 cumulative IPC: 1.02932 (Simulation time: 2 hr 40 min 1 sec) 
Heartbeat CPU 0 instructions: 1060000000 cycles: 734243447 heartbeat IPC: 1.17466 cumulative IPC: 1.0316 (Simulation time: 2 hr 41 min 41 sec) 
Heartbeat CPU 0 instructions: 1070000003 cycles: 742728620 heartbeat IPC: 1.17853 cumulative IPC: 1.03386 (Simulation time: 2 hr 43 min 11 sec) 
Heartbeat CPU 0 instructions: 1080000000 cycles: 751052586 heartbeat IPC: 1.20135 cumulative IPC: 1.03635 (Simulation time: 2 hr 44 min 49 sec) 
Heartbeat CPU 0 instructions: 1090000000 cycles: 759444362 heartbeat IPC: 1.19164 cumulative IPC: 1.03865 (Simulation time: 2 hr 46 min 15 sec) 
Heartbeat CPU 0 instructions: 1100000000 cycles: 767819250 heartbeat IPC: 1.19405 cumulative IPC: 1.04091 (Simulation time: 2 hr 47 min 31 sec) 
Heartbeat CPU 0 instructions: 1110000001 cycles: 776454773 heartbeat IPC: 1.15801 cumulative IPC: 1.04263 (Simulation time: 2 hr 48 min 27 sec) 
Heartbeat CPU 0 instructions: 1120000004 cycles: 785135281 heartbeat IPC: 1.15201 cumulative IPC: 1.04423 (Simulation time: 2 hr 49 min 22 sec) 
Heartbeat CPU 0 instructions: 1130000000 cycles: 793848616 heartbeat IPC: 1.14767 cumulative IPC: 1.04573 (Simulation time: 2 hr 50 min 15 sec) 
Heartbeat CPU 0 instructions: 1140000002 cycles: 802444249 heartbeat IPC: 1.16338 cumulative IPC: 1.04738 (Simulation time: 2 hr 51 min 12 sec) 
Heartbeat CPU 0 instructions: 1150000004 cycles: 810834639 heartbeat IPC: 1.19184 cumulative IPC: 1.04934 (Simulation time: 2 hr 52 min 8 sec) 
Heartbeat CPU 0 instructions: 1160000001 cycles: 819271130 heartbeat IPC: 1.18533 cumulative IPC: 1.05117 (Simulation time: 2 hr 53 min 3 sec) 
Heartbeat CPU 0 instructions: 1170000004 cycles: 827778160 heartbeat IPC: 1.1755 cumulative IPC: 1.05283 (Simulation time: 2 hr 53 min 55 sec) 
Heartbeat CPU 0 instructions: 1180000000 cycles: 836111908 heartbeat IPC: 1.19994 cumulative IPC: 1.05473 (Simulation time: 2 hr 54 min 49 sec) 
Heartbeat CPU 0 instructions: 1190000002 cycles: 844539439 heartbeat IPC: 1.18659 cumulative IPC: 1.05643 (Simulation time: 2 hr 55 min 43 sec) 
Heartbeat CPU 0 instructions: 1200000001 cycles: 852753381 heartbeat IPC: 1.21744 cumulative IPC: 1.05843 (Simulation time: 2 hr 56 min 39 sec) 
Heartbeat CPU 0 instructions: 1210000003 cycles: 861005876 heartbeat IPC: 1.21176 cumulative IPC: 1.06032 (Simulation time: 2 hr 57 min 34 sec) 
Heartbeat CPU 0 instructions: 1220000001 cycles: 869605677 heartbeat IPC: 1.16282 cumulative IPC: 1.06162 (Simulation time: 2 hr 58 min 27 sec) 
Heartbeat CPU 0 instructions: 1230000000 cycles: 878121576 heartbeat IPC: 1.17427 cumulative IPC: 1.06302 (Simulation time: 2 hr 59 min 19 sec) 
Heartbeat CPU 0 instructions: 1240000001 cycles: 886617536 heartbeat IPC: 1.17703 cumulative IPC: 1.06441 (Simulation time: 3 hr 0 min 13 sec) 
Heartbeat CPU 0 instructions: 1250000004 cycles: 895079673 heartbeat IPC: 1.18173 cumulative IPC: 1.06582 (Simulation time: 3 hr 1 min 7 sec) 
Heartbeat CPU 0 instructions: 1260000003 cycles: 903492003 heartbeat IPC: 1.18873 cumulative IPC: 1.06728 (Simulation time: 3 hr 2 min 4 sec) 
Heartbeat CPU 0 instructions: 1270000002 cycles: 912064311 heartbeat IPC: 1.16655 cumulative IPC: 1.06846 (Simulation time: 3 hr 2 min 57 sec) 
Heartbeat CPU 0 instructions: 1280000000 cycles: 920539796 heartbeat IPC: 1.17987 cumulative IPC: 1.06975 (Simulation time: 3 hr 3 min 49 sec) 
Heartbeat CPU 0 instructions: 1290000002 cycles: 929100842 heartbeat IPC: 1.16808 cumulative IPC: 1.07089 (Simulation time: 3 hr 4 min 42 sec) 
Heartbeat CPU 0 instructions: 1300000004 cycles: 937425166 heartbeat IPC: 1.2013 cumulative IPC: 1.07235 (Simulation time: 3 hr 5 min 36 sec) 
Heartbeat CPU 0 instructions: 1310000002 cycles: 945771623 heartbeat IPC: 1.19811 cumulative IPC: 1.07374 (Simulation time: 3 hr 6 min 29 sec) 
Heartbeat CPU 0 instructions: 1320000004 cycles: 954143555 heartbeat IPC: 1.19447 cumulative IPC: 1.07506 (Simulation time: 3 hr 7 min 24 sec) 
Heartbeat CPU 0 instructions: 1330000000 cycles: 962623928 heartbeat IPC: 1.17919 cumulative IPC: 1.07621 (Simulation time: 3 hr 8 min 18 sec) 
Heartbeat CPU 0 instructions: 1340000000 cycles: 971460672 heartbeat IPC: 1.13164 cumulative IPC: 1.07684 (Simulation time: 3 hr 9 min 10 sec) 
Heartbeat CPU 0 instructions: 1350000002 cycles: 980195392 heartbeat IPC: 1.14486 cumulative IPC: 1.07759 (Simulation time: 3 hr 10 min 2 sec) 
Heartbeat CPU 0 instructions: 1360000000 cycles: 988656852 heartbeat IPC: 1.18183 cumulative IPC: 1.0787 (Simulation time: 3 hr 10 min 57 sec) 
Heartbeat CPU 0 instructions: 1370000000 cycles: 997087359 heartbeat IPC: 1.18617 cumulative IPC: 1.07982 (Simulation time: 3 hr 11 min 52 sec) 
Heartbeat CPU 0 instructions: 1380000004 cycles: 1005450833 heartbeat IPC: 1.19568 cumulative IPC: 1.08101 (Simulation time: 3 hr 12 min 47 sec) 
Heartbeat CPU 0 instructions: 1390000003 cycles: 1014044600 heartbeat IPC: 1.16363 cumulative IPC: 1.08187 (Simulation time: 3 hr 13 min 42 sec) 
Heartbeat CPU 0 instructions: 1400000000 cycles: 1022614683 heartbeat IPC: 1.16685 cumulative IPC: 1.08275 (Simulation time: 3 hr 14 min 34 sec) 
Heartbeat CPU 0 instructions: 1410000000 cycles: 1031050959 heartbeat IPC: 1.18536 cumulative IPC: 1.08378 (Simulation time: 3 hr 15 min 29 sec) 
Heartbeat CPU 0 instructions: 1420000000 cycles: 1039518684 heartbeat IPC: 1.18095 cumulative IPC: 1.08475 (Simulation time: 3 hr 16 min 23 sec) 
Heartbeat CPU 0 instructions: 1430000002 cycles: 1047728516 heartbeat IPC: 1.21805 cumulative IPC: 1.08603 (Simulation time: 3 hr 17 min 18 sec) 
Heartbeat CPU 0 instructions: 1440000000 cycles: 1056114690 heartbeat IPC: 1.19244 cumulative IPC: 1.08706 (Simulation time: 3 hr 18 min 13 sec) 
Heartbeat CPU 0 instructions: 1450000000 cycles: 1064330564 heartbeat IPC: 1.21716 cumulative IPC: 1.08829 (Simulation time: 3 hr 19 min 9 sec) 
Heartbeat CPU 0 instructions: 1460000004 cycles: 1072708029 heartbeat IPC: 1.19368 cumulative IPC: 1.08929 (Simulation time: 3 hr 20 min 4 sec) 
Heartbeat CPU 0 instructions: 1470000003 cycles: 1081252344 heartbeat IPC: 1.17037 cumulative IPC: 1.09007 (Simulation time: 3 hr 20 min 59 sec) 
Heartbeat CPU 0 instructions: 1480000000 cycles: 1089700824 heartbeat IPC: 1.18364 cumulative IPC: 1.09095 (Simulation time: 3 hr 21 min 53 sec) 
Heartbeat CPU 0 instructions: 1490000004 cycles: 1098310321 heartbeat IPC: 1.16151 cumulative IPC: 1.09162 (Simulation time: 3 hr 22 min 48 sec) 
Heartbeat CPU 0 instructions: 1500000001 cycles: 1106796781 heartbeat IPC: 1.17835 cumulative IPC: 1.09242 (Simulation time: 3 hr 23 min 44 sec) 
Heartbeat CPU 0 instructions: 1510000004 cycles: 1115313004 heartbeat IPC: 1.17423 cumulative IPC: 1.09317 (Simulation time: 3 hr 24 min 39 sec) 
Heartbeat CPU 0 instructions: 1520000001 cycles: 1123791128 heartbeat IPC: 1.17951 cumulative IPC: 1.09396 (Simulation time: 3 hr 25 min 34 sec) 
Heartbeat CPU 0 instructions: 1530000000 cycles: 1132393338 heartbeat IPC: 1.16249 cumulative IPC: 1.09459 (Simulation time: 3 hr 26 min 27 sec) 
Heartbeat CPU 0 instructions: 1540000000 cycles: 1140846775 heartbeat IPC: 1.18295 cumulative IPC: 1.09537 (Simulation time: 3 hr 27 min 22 sec) 
Heartbeat CPU 0 instructions: 1550000004 cycles: 1149186406 heartbeat IPC: 1.19909 cumulative IPC: 1.09628 (Simulation time: 3 hr 28 min 15 sec) 
Heartbeat CPU 0 instructions: 1560000002 cycles: 1157547578 heartbeat IPC: 1.196 cumulative IPC: 1.09714 (Simulation time: 3 hr 29 min 9 sec) 
Heartbeat CPU 0 instructions: 1570000003 cycles: 1165941147 heartbeat IPC: 1.19139 cumulative IPC: 1.09795 (Simulation time: 3 hr 30 min 2 sec) 
Heartbeat CPU 0 instructions: 1580000004 cycles: 1174183641 heartbeat IPC: 1.21323 cumulative IPC: 1.09892 (Simulation time: 3 hr 30 min 56 sec) 
Heartbeat CPU 0 instructions: 1590000000 cycles: 1182648033 heartbeat IPC: 1.18142 cumulative IPC: 1.09962 (Simulation time: 3 hr 31 min 49 sec) 
Heartbeat CPU 0 instructions: 1600000001 cycles: 1190928767 heartbeat IPC: 1.20762 cumulative IPC: 1.10052 (Simulation time: 3 hr 32 min 44 sec) 
Heartbeat CPU 0 instructions: 1610000000 cycles: 1199248269 heartbeat IPC: 1.20199 cumulative IPC: 1.10135 (Simulation time: 3 hr 33 min 39 sec) 
Heartbeat CPU 0 instructions: 1620000001 cycles: 1207576963 heartbeat IPC: 1.20067 cumulative IPC: 1.10217 (Simulation time: 3 hr 34 min 33 sec) 
Heartbeat CPU 0 instructions: 1630000001 cycles: 1215854193 heartbeat IPC: 1.20813 cumulative IPC: 1.10302 (Simulation time: 3 hr 35 min 28 sec) 
Heartbeat CPU 0 instructions: 1640000002 cycles: 1224372497 heartbeat IPC: 1.17394 cumulative IPC: 1.10361 (Simulation time: 3 hr 36 min 21 sec) 
Heartbeat CPU 0 instructions: 1650000003 cycles: 1232845636 heartbeat IPC: 1.1802 cumulative IPC: 1.10423 (Simulation time: 3 hr 37 min 14 sec) 
Heartbeat CPU 0 instructions: 1660000000 cycles: 1241335936 heartbeat IPC: 1.17781 cumulative IPC: 1.10483 (Simulation time: 3 hr 38 min 9 sec) 
Heartbeat CPU 0 instructions: 1670000004 cycles: 1249863766 heartbeat IPC: 1.17263 cumulative IPC: 1.10537 (Simulation time: 3 hr 39 min 2 sec) 
Heartbeat CPU 0 instructions: 1680000001 cycles: 1258413735 heartbeat IPC: 1.16959 cumulative IPC: 1.10589 (Simulation time: 3 hr 39 min 55 sec) 
Heartbeat CPU 0 instructions: 1690000003 cycles: 1267042165 heartbeat IPC: 1.15896 cumulative IPC: 1.10631 (Simulation time: 3 hr 40 min 48 sec) 
Heartbeat CPU 0 instructions: 1700000001 cycles: 1275627429 heartbeat IPC: 1.16479 cumulative IPC: 1.10678 (Simulation time: 3 hr 41 min 40 sec) 
Heartbeat CPU 0 instructions: 1710000004 cycles: 1284216025 heartbeat IPC: 1.16434 cumulative IPC: 1.10723 (Simulation time: 3 hr 42 min 34 sec) 
Heartbeat CPU 0 instructions: 1720000003 cycles: 1292747617 heartbeat IPC: 1.17211 cumulative IPC: 1.10773 (Simulation time: 3 hr 43 min 27 sec) 
Heartbeat CPU 0 instructions: 1730000000 cycles: 1301226993 heartbeat IPC: 1.17933 cumulative IPC: 1.10828 (Simulation time: 3 hr 44 min 20 sec) 
Heartbeat CPU 0 instructions: 1740000002 cycles: 1309752435 heartbeat IPC: 1.17296 cumulative IPC: 1.10877 (Simulation time: 3 hr 45 min 14 sec) 
Heartbeat CPU 0 instructions: 1750000001 cycles: 1318209304 heartbeat IPC: 1.18247 cumulative IPC: 1.10933 (Simulation time: 3 hr 46 min 7 sec) 
Heartbeat CPU 0 instructions: 1760000001 cycles: 1326617496 heartbeat IPC: 1.18932 cumulative IPC: 1.10992 (Simulation time: 3 hr 47 min 1 sec) 
Heartbeat CPU 0 instructions: 1770000000 cycles: 1334894453 heartbeat IPC: 1.20817 cumulative IPC: 1.11063 (Simulation time: 3 hr 47 min 56 sec) 
Heartbeat CPU 0 instructions: 1780000002 cycles: 1343216345 heartbeat IPC: 1.20165 cumulative IPC: 1.11129 (Simulation time: 3 hr 48 min 50 sec) 
Heartbeat CPU 0 instructions: 1790000003 cycles: 1351525047 heartbeat IPC: 1.20356 cumulative IPC: 1.11195 (Simulation time: 3 hr 49 min 45 sec) 
Heartbeat CPU 0 instructions: 1800000000 cycles: 1359818192 heartbeat IPC: 1.20581 cumulative IPC: 1.11261 (Simulation time: 3 hr 50 min 39 sec) 
Heartbeat CPU 0 instructions: 1810000000 cycles: 1368262945 heartbeat IPC: 1.18417 cumulative IPC: 1.11313 (Simulation time: 3 hr 51 min 32 sec) 
Heartbeat CPU 0 instructions: 1820000003 cycles: 1376544707 heartbeat IPC: 1.20747 cumulative IPC: 1.11379 (Simulation time: 3 hr 52 min 26 sec) 
Heartbeat CPU 0 instructions: 1830000004 cycles: 1384940098 heartbeat IPC: 1.19113 cumulative IPC: 1.11433 (Simulation time: 3 hr 53 min 19 sec) 
Heartbeat CPU 0 instructions: 1840000000 cycles: 1393347527 heartbeat IPC: 1.18942 cumulative IPC: 1.11486 (Simulation time: 3 hr 54 min 13 sec) 
Heartbeat CPU 0 instructions: 1850000002 cycles: 1401624544 heartbeat IPC: 1.20816 cumulative IPC: 1.11549 (Simulation time: 3 hr 55 min 7 sec) 
Heartbeat CPU 0 instructions: 1860000000 cycles: 1410238780 heartbeat IPC: 1.16087 cumulative IPC: 1.11581 (Simulation time: 3 hr 56 min 1 sec) 
Heartbeat CPU 0 instructions: 1870000001 cycles: 1418788310 heartbeat IPC: 1.16966 cumulative IPC: 1.11619 (Simulation time: 3 hr 56 min 55 sec) 
Heartbeat CPU 0 instructions: 1880000000 cycles: 1427278791 heartbeat IPC: 1.17779 cumulative IPC: 1.11661 (Simulation time: 3 hr 57 min 50 sec) 
Heartbeat CPU 0 instructions: 1890000003 cycles: 1435812253 heartbeat IPC: 1.17186 cumulative IPC: 1.11699 (Simulation time: 3 hr 58 min 45 sec) 
Heartbeat CPU 0 instructions: 1900000000 cycles: 1444244460 heartbeat IPC: 1.18593 cumulative IPC: 1.11746 (Simulation time: 3 hr 59 min 40 sec) 
Heartbeat CPU 0 instructions: 1910000000 cycles: 1452835332 heartbeat IPC: 1.16403 cumulative IPC: 1.11777 (Simulation time: 4 hr 0 min 36 sec) 
Heartbeat CPU 0 instructions: 1920000003 cycles: 1461332692 heartbeat IPC: 1.17684 cumulative IPC: 1.11817 (Simulation time: 4 hr 1 min 29 sec) 
Heartbeat CPU 0 instructions: 1930000004 cycles: 1469760415 heartbeat IPC: 1.18656 cumulative IPC: 1.11862 (Simulation time: 4 hr 2 min 24 sec) 
Heartbeat CPU 0 instructions: 1940000000 cycles: 1478128064 heartbeat IPC: 1.19508 cumulative IPC: 1.11912 (Simulation time: 4 hr 3 min 20 sec) 
Heartbeat CPU 0 instructions: 1950000000 cycles: 1486307180 heartbeat IPC: 1.22263 cumulative IPC: 1.11977 (Simulation time: 4 hr 4 min 15 sec) 
Heartbeat CPU 0 instructions: 1960000000 cycles: 1494721540 heartbeat IPC: 1.18844 cumulative IPC: 1.12021 (Simulation time: 4 hr 5 min 10 sec) 
Heartbeat CPU 0 instructions: 1970000003 cycles: 1503055715 heartbeat IPC: 1.19988 cumulative IPC: 1.12072 (Simulation time: 4 hr 6 min 4 sec) 
Heartbeat CPU 0 instructions: 1980000001 cycles: 1511482421 heartbeat IPC: 1.1867 cumulative IPC: 1.12114 (Simulation time: 4 hr 6 min 59 sec) 
Heartbeat CPU 0 instructions: 1990000000 cycles: 1520015183 heartbeat IPC: 1.17195 cumulative IPC: 1.12147 (Simulation time: 4 hr 7 min 52 sec) 
*** Reached end of trace: traces/654.roms_s-294B.champsimtrace.xz
Heartbeat CPU 0 instructions: 2000000000 cycles: 1528558974 heartbeat IPC: 1.17044 cumulative IPC: 1.12178 (Simulation time: 4 hr 8 min 45 sec) 
Finished CPU 0 instructions: 1500000000 cycles: 1337160743 cumulative IPC: 1.12178 (Simulation time: 4 hr 8 min 45 sec) 

ChampSim completed all CPUs

Region of Interest Statistics

CPU 0 cumulative IPC: 1.12178 instructions: 1500000000 cycles: 1337160743
cpu0_DTLB TOTAL     ACCESS:  317658957  HIT:  315653134  MISS:    2005823
cpu0_DTLB LOAD      ACCESS:  236590923  HIT:  235451863  MISS:    1139060
cpu0_DTLB RFO       ACCESS:   81068034  HIT:   80201271  MISS:     866763
cpu0_DTLB PREFETCH  ACCESS:          0  HIT:          0  MISS:          0
cpu0_DTLB WRITEBACK ACCESS:          0  HIT:          0  MISS:          0
cpu0_DTLB TRANSLATION ACCESS:          0  HIT:          0  MISS:          0
cpu0_DTLB PREFETCH  REQUESTED:          0  ISSUED:          0  USEFUL:          0  USELESS:          0
cpu0_DTLB AVERAGE MISS LATENCY: 14.6366 cycles
cpu0_ITLB TOTAL     ACCESS:   86347530  HIT:   86347443  MISS:         87
cpu0_ITLB LOAD      ACCESS:   86347530  HIT:   86347443  MISS:         87
cpu0_ITLB RFO       ACCESS:          0  HIT:          0  MISS:          0
cpu0_ITLB PREFETCH  ACCESS:          0  HIT:          0  MISS:          0
cpu0_ITLB WRITEBACK ACCESS:          0  HIT:          0  MISS:          0
cpu0_ITLB TRANSLATION ACCESS:          0  HIT:          0  MISS:          0
cpu0_ITLB PREFETCH  REQUESTED:          0  ISSUED:          0  USEFUL:          0  USELESS:          0
cpu0_ITLB AVERAGE MISS LATENCY: 191.598 cycles
cpu0_L1I TOTAL     ACCESS:  188170885  HIT:  188169442  MISS:       1443
cpu0_L1I LOAD      ACCESS:  188170885  HIT:  188169442  MISS:       1443
cpu0_L1I RFO       ACCESS:          0  HIT:          0  MISS:          0
cpu0_L1I PREFETCH  ACCESS:          0  HIT:          0  MISS:          0
cpu0_L1I WRITEBACK ACCESS:          0  HIT:          0  MISS:          0
cpu0_L1I TRANSLATION ACCESS:          0  HIT:          0  MISS:          0
cpu0_L1I PREFETCH  REQUESTED:          0  ISSUED:          0  USEFUL:          0  USELESS:          0
cpu0_L1I AVERAGE MISS LATENCY: 146.109 cycles
cpu0_STLB TOTAL     ACCESS:    2005910  HIT:    1953032  MISS:      52878
cpu0_STLB LOAD      ACCESS:    1139147  HIT:    1088525  MISS:      50622
cpu0_STLB RFO       ACCESS:     866763  HIT:     864507  MISS:       2256
cpu0_STLB PREFETCH  ACCESS:          0  HIT:          0  MISS:          0
cpu0_STLB WRITEBACK ACCESS:          0  HIT:          0  MISS:          0
cpu0_STLB TRANSLATION ACCESS:          0  HIT:          0  MISS:          0
cpu0_STLB PREFETCH  REQUESTED:          0  ISSUED:          0  USEFUL:          0  USELESS:          0
cpu0_STLB AVERAGE MISS LATENCY: 213.54 cycles
cpu0_L1D TOTAL     ACCESS:  387330583  HIT:  383385837  MISS:    3944746
cpu0_L1D LOAD      ACCESS:  239361437  HIT:  236201211  MISS:    3160226
cpu0_L1D RFO       ACCESS:  147916650  HIT:  147147136  MISS:     769514
cpu0_L1D PREFETCH  ACCESS:          0  HIT:          0  MISS:          0
cpu0_L1D WRITEBACK ACCESS:          0  HIT:          0  MISS:          0
cpu0_L1D TRANSLATION ACCESS:      52496  HIT:      37490  MISS:      15006
cpu0_L1D PREFETCH  REQUESTED:          0  ISSUED:          0  USEFUL:          0  USELESS:          0
cpu0_L1D AVERAGE MISS LATENCY: 174.12 cycles
cpu0_L2C TOTAL     ACCESS:    4985687  HIT:    2881509  MISS:    2104178
cpu0_L2C LOAD      ACCESS:    3161628  HIT:    1222795  MISS:    1938833
cpu0_L2C RFO       ACCESS:     769514  HIT:     626205  MISS:     143309
cpu0_L2C PREFETCH  ACCESS:          0  HIT:          0  MISS:          0
cpu0_L2C WRITEBACK ACCESS:    1039539  HIT:    1027718  MISS:      11821
cpu0_L2C TRANSLATION ACCESS:      15006  HIT:       4791  MISS:      10215
cpu0_L2C PREFETCH  REQUESTED:          0  ISSUED:          0  USEFUL:          0  USELESS:          0
cpu0_L2C AVERAGE MISS LATENCY: 305.563 cycles
LLC TOTAL     ACCESS:    2234532  HIT:     411896  MISS:    1822636
LLC LOAD      ACCESS:    1938833  HIT:     260256  MISS:    1678577
LLC RFO       ACCESS:     143309  HIT:        438  MISS:     142871
LLC PREFETCH  ACCESS:          0  HIT:          0  MISS:          0
LLC WRITEBACK ACCESS:     142175  HIT:     141062  MISS:       1113
LLC TRANSLATION ACCESS:      10215  HIT:      10140  MISS:         75
LLC PREFETCH  REQUESTED:          0  ISSUED:          0  USEFUL:          0  USELESS:          0
LLC AVERAGE MISS LATENCY: 328.656 cycles
~~~~~~~~~~Reuse Distance Profiler output~~~~~~~~~~
0	73184112	22824288
1	28542688	10026864
2	30915104	16293728
3	19833584	9439104
4	17101536	9398304
5	15968416	8366000
6	13196736	9057152
7	12759712	9171232
8	7630624	5398688
9	6550192	5056464
10	6912208	6181872
11	8480896	7393872
12	6573808	6214896
13	8698256	8411392
14	13519248	13301872
15	11995072	11863744
16	9146272	9017904
17	5978208	5725648
18	16978784	16399008
19	27856240	26829280
20	13524720	12447920
21	6885568	6004384
22	4092032	3052336
23	4618176	3838192
24	2368160	1945488
25	2393328	1675776
26	2456944	1820992
27	2427696	2152992
28	2653568	1857584
29	2534928	1891056
30	3051024	2061888
31	1787936	1174288
32	2305840	1716448
33	2116640	1285856
34	3278032	2412896
35	2753440	2325264
36	2196624	1310512
37	1493312	1341648
38	2156704	1552720
39	1296224	864016
40	1421056	960336
41	815040	598464
42	1709808	1395824
43	1551104	1206400
44	1350160	1001296
45	2132464	1941648
46	1535680	1017520
47	2022112	1541840
48	1219264	1055584
49	1287952	1109808
50	1571360	1078368
51	2312464	2082160
52	1193952	1073744
53	1421392	1050896
54	819776	612064
55	671232	581568
56	1065104	834832
57	687552	556656
58	1087680	626864
59	681232	520240
60	651984	587680
61	802208	788944
62	631488	606752
63	477168	395520
64	823728	368448
66	760688	566832
68	1057120	1000464
70	579248	518672
72	406832	353872
74	544464	476816
76	634784	580352
78	547552	453040
80	328992	261888
82	934464	724624
84	481984	413088
86	623840	603360
88	738064	442912
90	643728	377472
92	1263152	483360
94	2100640	1632688
96	3925200	3218032
98	3310816	3000272
100	4208944	3902848
102	1744896	1577024
104	746592	638688
106	749344	629760
108	942560	616368
110	720304	502032
112	1538288	1327984
114	1014256	842960
116	5416720	4954848
118	683344	676048
120	1278192	1193600
122	526864	403120
124	602880	513024
126	675968	406704
128	1552608	1335040
132	1249568	927248
136	944048	519280
140	528784	346480
144	786336	547280
148	993824	818432
152	963840	882224
156	896944	782624
160	856864	811040
164	505664	454624
168	636992	545344
172	351168	348704
176	473808	427344
180	541024	417424
184	506752	425568
188	568288	516640
192	408592	398816
196	384656	380352
200	363424	358496
204	507536	472944
208	583616	537280
212	1004400	812176
216	878832	756384
220	1196784	790336
224	793344	662976
228	789104	590992
232	380048	343856
236	567088	566864
240	256672	256400
244	120800	120544
248	107360	107200
252	130592	130496
256	121792	121632
264	39184	38896
272	119392	119104
280	280528	277680
288	974784	934576
296	667472	551168
304	388096	374640
312	175712	136880
320	712480	469296
328	2232528	1388784
336	3617600	2431936
344	1657056	1302000
352	1436080	1207728
360	734848	546512
368	593392	322992
376	726720	368400
384	1191296	962144
392	1066256	985376
400	559648	559648
408	569232	569072
416	1672032	1624000
424	3575904	3343552
432	5591488	5178640
440	3079536	2882112
448	215632	215568
456	267984	267792
464	168896	168832
472	77328	77312
480	45776	45760
488	104240	104144
496	115968	112560
504	258528	161904
512	652128	452352
528	776528	565376
544	908880	781152
560	281232	140192
576	108464	87808
592	66336	19008
608	245104	216672
624	666864	657072
640	929392	914928
656	1424896	947280
672	5718208	3672352
688	139248	84688
704	752	464
720	704	656
736	336	336
752	208	192
768	144	128
784	400	400
800	832	816
816	544	544
832	176	176
848	768	768
864	320	320
880	1264	1264
896	320	320
912	48	48
928	576	576
944	64	48
960	256	256
976	32	32
992	112	112
1008	96	96
1024	240	224
1056	144	144
1088	288	288
1120	256	240
1152	240	240
1184	288	256
1216	240	224
1248	224	208
1280	368	352
1312	224	208
1344	192	192
1376	192	192
1408	384	368
1440	224	224
1472	208	208
1504	112	112
1536	240	240
1568	336	320
1600	368	368
1632	144	144
1664	144	144
1696	208	208
1728	304	304
1760	272	272
1792	352	352
1824	80	64
1856	352	320
1888	224	224
1920	192	192
1952	304	304
1984	128	112
2016	224	224
2048	480	480
2112	1120	1104
2176	16960	16944
2240	34096	34080
2304	49216	49184
2368	4880	4864
2432	464	464
2496	464	464
2560	352	320
2624	608	608
2688	384	384
2752	432	416
2816	592	592
2880	464	464
2944	464	464
3008	432	416
3072	560	560
3136	592	592
3200	400	400
3264	480	480
3328	512	512
3392	496	496
3456	464	464
3520	464	464
3584	544	544
3648	304	304
3712	496	496
3776	416	416
3840	480	480
3904	464	464
3968	480	480
4032	288	288
4096	848	848
4224	976	944
4352	864	864
4480	912	896
4608	1088	1072
4736	976	944
4864	848	848
4992	992	960
5120	688	672
5248	1104	1104
5376	688	672
5504	1024	992
5632	944	928
5760	944	928
5888	1088	1072
6016	768	768
6144	1120	1120
6272	1024	1024
6400	960	944
6528	896	896
6656	928	928
6784	912	896
6912	1776	1776
7040	36672	36672
7168	720768	720768
7296	17888	17888
7424	816	816
7552	784	784
7680	704	704
7808	656	656
7936	480	480
8064	704	704
8192	1568	1568
8448	1280	1280
8704	1360	1344
8960	1552	1552
9216	1376	1376
9472	1328	1328
9728	1584	1584
9984	3952	3952
10240	2249184	2249184
10496	907872	907872
10752	1264	1264
11008	384	384
11264	560	544
11520	368	368
11776	16	0
12032	16	0
12288	0	0
12544	0	0
12800	0	0
13056	0	0
13312	0	0
13568	0	0
13824	0	0
14080	0	0
14336	0	0
14592	0	0
14848	0	0
15104	0	0
15360	0	0
15616	0	0
15872	0	0
16128	0	0
16384	0	0
16896	16	0
17408	64	64
17920	96	96
18432	0	0
18944	0	0
19456	0	0
19968	0	0
20480	0	0
20992	0	0
21504	0	0
22016	0	0
22528	0	0
23040	0	0
23552	0	0
24064	0	0
24576	0	0
25088	0	0
25600	0	0
26112	0	0
26624	0	0
27136	0	0
27648	0	0
28160	0	0
28672	0	0
29184	0	0
29696	0	0
30208	0	0
30720	0	0
31232	0	0
31744	0	0
32256	0	0
32768	0	0
33792	0	0
34816	0	0
35840	80	80
36864	0	0
37888	0	0
38912	0	0
39936	0	0
40960	0	0
41984	0	0
43008	0	0
44032	0	0
45056	0	0
46080	0	0
47104	0	0
48128	0	0
49152	0	0
50176	0	0
51200	0	0
52224	0	0
53248	0	0
54272	0	0
55296	0	0
56320	0	0
57344	0	0
58368	1504	1504
59392	5728	2864
60416	14176	8032
61440	1504	1504
62464	0	0
63488	2080	2080
64512	3456	96
65536	3104	2448
67584	2992	2224
69632	4320	1248
71680	1776	1776
73728	6048	2112
75776	2320	2320
77824	6480	2304
79872	1136	1136
81920	5552	1968
83968	1968	1920
86016	5776	2512
88064	2768	2064
90112	2928	1440
92160	4496	2096
94208	2208	1712
96256	5920	2240
98304	1792	1600
100352	5904	2016
102400	1760	1696
104448	5328	1792
106496	2080	1920
108544	4720	1584
110592	2704	1744
112640	3504	2000
114688	3968	1680
116736	2624	1696
118784	4720	1552
120832	2448	2064
122880	5232	1936
124928	2208	1984
126976	5024	1744
129024	2432	1824
131072	8304	4080
135168	7216	3136
139264	7280	3520
143360	7856	4080
147456	7456	3872
151552	6992	4064
155648	6272	3264
159744	7072	3680
163840	7344	3888
167936	7888	4064
172032	7456	3648
176128	7584	3664
180224	7632	3776
184320	7632	3792
188416	7088	3648
192512	6832	3584
196608	7072	3872
200704	7712	3984
204800	6640	3248
208896	7888	4192
212992	76688	64416
217088	315328	270160
221184	284336	243728
225280	19552	14320
229376	14192	9856
233472	13808	9216
237568	13520	9152
241664	13408	9168
245760	13616	9632
249856	13104	8832
253952	13264	8992
258048	13232	9152
262144	27104	18928
270336	28384	18496
278528	35360	19104
286720	292384	274048
294912	37152	18784
303104	36688	18448
311296	36352	17904
319488	36304	17648
327680	36896	18224
335872	33728	16192
344064	17696	5328
352256	9952	320
360448	9504	256
368640	9856	96
376832	9504	48
385024	10256	160
393216	9888	96
401408	6016	512
409600	1712	688
417792	810640	810304
425984	237392	237312
434176	32	32
442368	64	64
450560	176	176
458752	0	0
466944	0	0
475136	0	0
483328	0	0
491520	0	0
499712	48	48
507904	144	144
516096	0	0
524288	0	0
540672	16	16
557056	16	16
573440	0	0
589824	0	0
606208	2064	16
622592	19424	320
638976	64	32
655360	1104	784
671744	1376	1184
688128	0	0
704512	1088	928
720896	10832	9072
737280	13328	10720
753664	12544	9840
770048	11968	9264
786432	12432	9952
802816	12496	9936
819200	11776	9280
835584	12336	9984
851968	12912	10784
868352	11888	9088
884736	11776	9344
901120	12400	9808
917504	11184	8784
933888	11888	9584
950272	12192	9728
966656	11632	9024
983040	12368	9856
999424	13136	9072
1015808	13392	4848
1032192	11792	272
1048576	20944	1392
1081344	2784	944
1114112	112	48
1146880	32	32
1179648	176	112
1212416	128	0
1245184	160	0
1277952	496	304
1310720	192	80
1343488	224	48
1376256	64	0
1409024	160	0
1441792	96	16
1474560	304	176
1507328	64	16
1540096	48	32
1572864	64	64
1605632	48	0
1638400	32	0
1671168	48	32
1703936	64	64
1736704	32	16
1769472	208	208
1802240	112	112
1835008	0	0
1867776	0	0
1900544	80	80
1933312	32	32
1966080	0	0
1998848	0	0
2031616	0	0
2064384	352	352
2097152	128	128
2162688	144	144
2228224	80	80
2293760	32	16
2359296	336	320
2424832	64	64
2490368	32	16
2555904	128	112
2621440	448	448
2686976	48	48
2752512	128	128
2818048	80	80
2883584	176	176
2949120	96	96
3014656	176	176
3080192	0	0
3145728	80	80
3211264	320	320
3276800	32	32
3342336	0	0
3407872	160	128
3473408	416	400
3538944	48	16
3604480	64	48
3670016	0	0
3735552	32	32
3801088	256	256
3866624	48	48
3932160	16	16
3997696	0	0
4063232	352	352
4128768	48	48
4194304	64	64
4325376	448	448
4456448	128	128
4587520	384	384
4718592	96	96
4849664	352	352
4980736	112	112
5111808	160	160
5242880	304	304
5373952	176	176
5505024	288	288
5636096	112	112
5767168	416	368
5898240	48	48
6029312	240	240
6160384	96	96
6291456	112	112
6422528	512	416
6553600	80	48
6684672	352	336
6815744	96	64
6946816	304	304
7077888	80	80
7208960	224	224
7340032	48	48
7471104	304	304
7602176	64	64
7733248	80	48
7864320	432	432
7995392	112	96
8126464	352	352
8257536	32	32
8388608	512	512
8650752	464	464
8912896	224	224
9175040	352	352
9437184	400	400
9699328	384	368
9961472	512	400
10223616	192	192
10485760	96	96
10747904	272	272
11010048	448	368
11272192	528	480
11534336	576	576
11796480	192	192
12058624	304	224
12320768	352	288
12582912	352	352
12845056	336	320
13107200	128	112
13369344	400	352
13631488	224	224
13893632	208	208
14155776	544	432
14417920	272	272
14680064	208	208
14942208	320	320
15204352	304	272
15466496	432	400
15728640	112	112
15990784	192	192
16252928	368	336
16515072	352	336
16777216	656	656
17301504	752	656
17825792	656	656
18350080	400	304
18874368	800	800
19398656	928	848
19922944	688	688
20447232	736	688
20971520	320	320
21495808	848	640
22020096	656	656
22544384	368	368
23068672	624	624
23592960	592	576
24117248	512	464
24641536	448	400
25165824	464	432
25690112	432	432
26214400	480	464
26738688	288	288
27262976	352	304
27787264	448	448
28311552	480	416
28835840	608	608
29360128	256	224
29884416	320	320
30408704	624	560
30932992	256	256
31457280	352	320
31981568	208	208
32505856	496	432
33030144	128	128
33554432	640	592
34603008	624	608
35651584	752	656
36700160	944	896
37748736	624	560
38797312	784	784
39845888	656	640
40894464	496	448
41943040	1280	1168
42991616	688	656
44040192	752	736
45088768	592	496
46137344	864	832
47185920	720	656
48234496	944	800
49283072	560	512
50331648	752	720
51380224	512	368
52428800	592	560
53477376	704	672
54525952	704	624
55574528	896	832
56623104	608	544
57671680	928	784
58720256	864	800
59768832	752	656
60817408	880	544
61865984	848	800
62914560	688	608
63963136	1200	1104
65011712	496	464
66060288	688	560
67108864	1584	1536
69206016	1680	1664
71303168	1584	1504
73400320	1312	1248
75497472	1520	1376
77594624	1584	1408
79691776	1344	1264
81788928	1360	1152
83886080	1760	1584
85983232	1328	1264
88080384	1392	1312
90177536	1696	1600
92274688	1200	1024
94371840	1712	1648
96468992	1456	1168
98566144	1360	1232
100663296	1664	1424
102760448	1360	1104
104857600	1360	1248
106954752	1344	1088
109051904	1392	1344
111149056	1312	1184
113246208	1472	1392
115343360	1680	1440
117440512	1328	1280
119537664	1552	1472
121634816	1216	1072
123731968	1664	1472
125829120	1264	1200
127926272	1536	1360
130023424	1200	976
132120576	1344	1248
134217728	3040	2816
138412032	2496	2256
142606336	3120	2672
146800640	2912	2704
150994944	2944	2624
155189248	2688	2560
159383552	3280	3056
163577856	3232	2800
167772160	2736	2496
171966464	3280	2848
176160768	2544	2256
180355072	2448	2320
184549376	2464	2336
188743680	3488	3168
192937984	2640	2336
197132288	1664	1472
201326592	288	0
205520896	400	0
209715200	192	0
213909504	208	0
218103808	176	0
222298112	336	0
226492416	192	0
230686720	256	0
234881024	304	0
239075328	144	0
243269632	288	0
247463936	288	0
251658240	256	0
255852544	176	0
260046848	400	0
264241152	336	0
268435456	544	0
276824064	368	0
285212672	560	0
293601280	592	0
301989888	688	0
310378496	848	0
318767104	672	0
327155712	592	0
335544320	432	0
343932928	592	0
352321536	352	0
360710144	0	0
369098752	0	0
377487360	0	0
385875968	0	0
394264576	0	0
402653184	0	0
411041792	0	0
419430400	0	0
427819008	0	0
436207616	0	0
444596224	0	0
452984832	0	0
461373440	0	0
469762048	0	0
478150656	0	0
486539264	0	0
494927872	0	0
503316480	0	0
511705088	0	0
520093696	0	0
528482304	0	0
536870912	0	0
553648128	0	0
570425344	0	0
587202560	0	0
603979776	0	0
620756992	0	0
637534208	0	0
654311424	0	0
671088640	0	0
687865856	0	0
704643072	0	0
721420288	0	0
738197504	0	0
754974720	0	0
771751936	0	0
788529152	0	0
805306368	0	0
822083584	0	0
838860800	0	0
855638016	0	0
872415232	0	0
889192448	0	0
905969664	0	0
922746880	0	0
939524096	0	0
956301312	0	0
973078528	0	0
989855744	0	0
1006632960	0	0
1023410176	0	0
1040187392	0	0
1056964608	0	0
1073741824	0	0
1107296256	0	0
1140850688	0	0
1174405120	0	0
1207959552	0	0
1241513984	0	0
1275068416	0	0
1308622848	0	0
1342177280	0	0
1375731712	0	0
1409286144	0	0
1442840576	0	0
1476395008	0	0
1509949440	0	0
1543503872	0	0
1577058304	0	0
1610612736	0	0
1644167168	0	0
1677721600	0	0
1711276032	0	0
1744830464	0	0
1778384896	0	0
1811939328	0	0
1845493760	0	0
1879048192	0	0
1912602624	0	0
1946157056	0	0
1979711488	0	0
2013265920	0	0
2046820352	0	0
2080374784	0	0
2113929216	0	0
2147483648	0	0
2214592512	0	0
2281701376	0	0
2348810240	0	0
2415919104	0	0
2483027968	0	0
2550136832	0	0
2617245696	0	0
2684354560	0	0
2751463424	0	0
2818572288	0	0
2885681152	0	0
2952790016	0	0
3019898880	0	0
3087007744	0	0
3154116608	0	0
3221225472	0	0
3288334336	0	0
3355443200	0	0
3422552064	0	0
3489660928	0	0
3556769792	0	0
3623878656	0	0
3690987520	0	0
3758096384	0	0
3825205248	0	0
3892314112	0	0
3959422976	0	0
4026531840	0	0
4093640704	0	0
4160749568	0	0
4227858432	0	0
~~~~~~~~~~Reuse Distance Profiler output end~~~~~~~~~~

DRAM Statistics
 CHANNEL 0
 RQ ROW_BUFFER_HIT:      46542  ROW_BUFFER_MISS:    1774935
 DBUS AVG_CONGESTED_CYCLE:    3.88427
 WQ ROW_BUFFER_HIT:      14632  ROW_BUFFER_MISS:     116001  FULL:          0


CPU 0 Branch Prediction Accuracy: 97.2779% MPKI: 3.09756 Average ROB Occupancy at Mispredict: 131.18
Branch type MPKI
BRANCH_DIRECT_JUMP: 0.000136667
BRANCH_INDIRECT: 4.26667e-05
BRANCH_CONDITIONAL: 3.09704
BRANCH_DIRECT_CALL: 0.000174667
BRANCH_INDIRECT_CALL: 6.66667e-06
BRANCH_RETURN: 0.000156

