
*** ChampSim Multicore Out-of-Order Simulator ***

Warmup Instructions: 500000000
Simulation Instructions: 1500000000
Number of CPUs: 1
Off-chip DRAM Size: 4 GiB Channels: 1 Width: 64-bit Data Rate: 3200 MT/s

VirtualMemory physical capacity: 8588881920 num_ppages: 2096895
VirtualMemory page size: 4096 log2_page_size: 12

CPU 0 runs traces/654.roms_s-523B.champsimtrace.xz
CPU 0 Bimodal branch predictor
Basic BTB sets: 1024 ways: 8 indirect buffer size: 4096 RAS size: 64
Initializing LRU.
Initializing LRU.
Initializing LRU.
Initializing LRU.
Initializing rdLRU.
Initializing LRU.
Initializing LRU.
Heartbeat CPU 0 instructions: 10000003 cycles: 3119862 heartbeat IPC: 3.20527 cumulative IPC: 3.20527 (Simulation time: 0 hr 1 min 7 sec) 
Heartbeat CPU 0 instructions: 20000000 cycles: 6038469 heartbeat IPC: 3.42629 cumulative IPC: 3.3121 (Simulation time: 0 hr 2 min 4 sec) 
Heartbeat CPU 0 instructions: 30000002 cycles: 10437624 heartbeat IPC: 2.27316 cumulative IPC: 2.87422 (Simulation time: 0 hr 3 min 56 sec) 
Heartbeat CPU 0 instructions: 40000000 cycles: 13994891 heartbeat IPC: 2.81115 cumulative IPC: 2.85819 (Simulation time: 0 hr 5 min 15 sec) 
Heartbeat CPU 0 instructions: 50000004 cycles: 18438726 heartbeat IPC: 2.25031 cumulative IPC: 2.71168 (Simulation time: 0 hr 7 min 11 sec) 
Heartbeat CPU 0 instructions: 60000000 cycles: 22696690 heartbeat IPC: 2.34854 cumulative IPC: 2.64356 (Simulation time: 0 hr 9 min 6 sec) 
Heartbeat CPU 0 instructions: 70000003 cycles: 26781400 heartbeat IPC: 2.44815 cumulative IPC: 2.61375 (Simulation time: 0 hr 10 min 50 sec) 
Heartbeat CPU 0 instructions: 80000004 cycles: 30842286 heartbeat IPC: 2.46252 cumulative IPC: 2.59384 (Simulation time: 0 hr 12 min 31 sec) 
Heartbeat CPU 0 instructions: 90000001 cycles: 34008413 heartbeat IPC: 3.15843 cumulative IPC: 2.6464 (Simulation time: 0 hr 13 min 39 sec) 
Heartbeat CPU 0 instructions: 100000004 cycles: 36866015 heartbeat IPC: 3.49944 cumulative IPC: 2.71253 (Simulation time: 0 hr 14 min 39 sec) 
Heartbeat CPU 0 instructions: 110000004 cycles: 41266243 heartbeat IPC: 2.27261 cumulative IPC: 2.66562 (Simulation time: 0 hr 16 min 35 sec) 
Heartbeat CPU 0 instructions: 120000003 cycles: 44852312 heartbeat IPC: 2.78857 cumulative IPC: 2.67545 (Simulation time: 0 hr 17 min 59 sec) 
Heartbeat CPU 0 instructions: 130000003 cycles: 49261198 heartbeat IPC: 2.26815 cumulative IPC: 2.63899 (Simulation time: 0 hr 19 min 46 sec) 
Heartbeat CPU 0 instructions: 140000004 cycles: 53506130 heartbeat IPC: 2.35575 cumulative IPC: 2.61652 (Simulation time: 0 hr 21 min 35 sec) 
Heartbeat CPU 0 instructions: 150000000 cycles: 57624959 heartbeat IPC: 2.42787 cumulative IPC: 2.60304 (Simulation time: 0 hr 23 min 21 sec) 
Heartbeat CPU 0 instructions: 160000002 cycles: 61684344 heartbeat IPC: 2.46343 cumulative IPC: 2.59385 (Simulation time: 0 hr 24 min 57 sec) 
Heartbeat CPU 0 instructions: 170000003 cycles: 64896887 heartbeat IPC: 3.1128 cumulative IPC: 2.61954 (Simulation time: 0 hr 26 min 8 sec) 
Heartbeat CPU 0 instructions: 180000000 cycles: 67693483 heartbeat IPC: 3.57577 cumulative IPC: 2.65904 (Simulation time: 0 hr 27 min 3 sec) 
Heartbeat CPU 0 instructions: 190000003 cycles: 72094831 heartbeat IPC: 2.27203 cumulative IPC: 2.63542 (Simulation time: 0 hr 28 min 55 sec) 
Heartbeat CPU 0 instructions: 200000004 cycles: 75709772 heartbeat IPC: 2.7663 cumulative IPC: 2.64167 (Simulation time: 0 hr 30 min 19 sec) 
Heartbeat CPU 0 instructions: 210000000 cycles: 80083706 heartbeat IPC: 2.28627 cumulative IPC: 2.62226 (Simulation time: 0 hr 32 min 7 sec) 
Heartbeat CPU 0 instructions: 220000001 cycles: 84315605 heartbeat IPC: 2.36301 cumulative IPC: 2.60924 (Simulation time: 0 hr 34 min 4 sec) 
Heartbeat CPU 0 instructions: 230000001 cycles: 88472893 heartbeat IPC: 2.40541 cumulative IPC: 2.59967 (Simulation time: 0 hr 35 min 55 sec) 
Heartbeat CPU 0 instructions: 240000004 cycles: 92526492 heartbeat IPC: 2.46694 cumulative IPC: 2.59385 (Simulation time: 0 hr 37 min 35 sec) 
Heartbeat CPU 0 instructions: 250000002 cycles: 95785412 heartbeat IPC: 3.0685 cumulative IPC: 2.61 (Simulation time: 0 hr 38 min 31 sec) 
Heartbeat CPU 0 instructions: 260000000 cycles: 98521004 heartbeat IPC: 3.65552 cumulative IPC: 2.63903 (Simulation time: 0 hr 39 min 23 sec) 
Heartbeat CPU 0 instructions: 270000001 cycles: 102923433 heartbeat IPC: 2.27147 cumulative IPC: 2.62331 (Simulation time: 0 hr 41 min 13 sec) 
Heartbeat CPU 0 instructions: 280000002 cycles: 106567201 heartbeat IPC: 2.74441 cumulative IPC: 2.62745 (Simulation time: 0 hr 42 min 37 sec) 
Heartbeat CPU 0 instructions: 290000000 cycles: 110906180 heartbeat IPC: 2.30469 cumulative IPC: 2.61482 (Simulation time: 0 hr 44 min 26 sec) 
Heartbeat CPU 0 instructions: 300000001 cycles: 115125045 heartbeat IPC: 2.37031 cumulative IPC: 2.60586 (Simulation time: 0 hr 46 min 9 sec) 
Heartbeat CPU 0 instructions: 310000001 cycles: 119346386 heartbeat IPC: 2.36892 cumulative IPC: 2.59748 (Simulation time: 0 hr 48 min 0 sec) 
Heartbeat CPU 0 instructions: 320000001 cycles: 123368550 heartbeat IPC: 2.48622 cumulative IPC: 2.59385 (Simulation time: 0 hr 49 min 23 sec) 
Heartbeat CPU 0 instructions: 330000003 cycles: 126673901 heartbeat IPC: 3.0254 cumulative IPC: 2.60511 (Simulation time: 0 hr 50 min 40 sec) 
Heartbeat CPU 0 instructions: 340000002 cycles: 129348492 heartbeat IPC: 3.73889 cumulative IPC: 2.62856 (Simulation time: 0 hr 51 min 35 sec) 
Heartbeat CPU 0 instructions: 350000002 cycles: 133752053 heartbeat IPC: 2.27089 cumulative IPC: 2.61678 (Simulation time: 0 hr 53 min 31 sec) 
Heartbeat CPU 0 instructions: 360000004 cycles: 137424673 heartbeat IPC: 2.72285 cumulative IPC: 2.61962 (Simulation time: 0 hr 54 min 54 sec) 
Heartbeat CPU 0 instructions: 370000001 cycles: 141728689 heartbeat IPC: 2.32341 cumulative IPC: 2.61062 (Simulation time: 0 hr 56 min 46 sec) 
Heartbeat CPU 0 instructions: 380000000 cycles: 145934522 heartbeat IPC: 2.37765 cumulative IPC: 2.60391 (Simulation time: 0 hr 58 min 23 sec) 
Heartbeat CPU 0 instructions: 390000001 cycles: 150219924 heartbeat IPC: 2.3335 cumulative IPC: 2.59619 (Simulation time: 1 hr 0 min 3 sec) 
Heartbeat CPU 0 instructions: 400000001 cycles: 154210702 heartbeat IPC: 2.50578 cumulative IPC: 2.59385 (Simulation time: 1 hr 1 min 40 sec) 
Heartbeat CPU 0 instructions: 410000000 cycles: 157562491 heartbeat IPC: 2.98348 cumulative IPC: 2.60214 (Simulation time: 1 hr 3 min 0 sec) 
Heartbeat CPU 0 instructions: 420000002 cycles: 160176078 heartbeat IPC: 3.82616 cumulative IPC: 2.62211 (Simulation time: 1 hr 3 min 43 sec) 
Heartbeat CPU 0 instructions: 430000000 cycles: 164580733 heartbeat IPC: 2.27032 cumulative IPC: 2.6127 (Simulation time: 1 hr 5 min 27 sec) 
Heartbeat CPU 0 instructions: 440000000 cycles: 168282171 heartbeat IPC: 2.70165 cumulative IPC: 2.61466 (Simulation time: 1 hr 6 min 55 sec) 
Heartbeat CPU 0 instructions: 450000000 cycles: 172551234 heartbeat IPC: 2.34243 cumulative IPC: 2.60792 (Simulation time: 1 hr 8 min 50 sec) 
Heartbeat CPU 0 instructions: 460000002 cycles: 176744038 heartbeat IPC: 2.38504 cumulative IPC: 2.60263 (Simulation time: 1 hr 10 min 19 sec) 
Heartbeat CPU 0 instructions: 470000001 cycles: 181093497 heartbeat IPC: 2.29914 cumulative IPC: 2.59534 (Simulation time: 1 hr 11 min 33 sec) 
Heartbeat CPU 0 instructions: 480000003 cycles: 185052886 heartbeat IPC: 2.52564 cumulative IPC: 2.59385 (Simulation time: 1 hr 13 min 6 sec) 
Heartbeat CPU 0 instructions: 490000003 cycles: 188451015 heartbeat IPC: 2.9428 cumulative IPC: 2.60015 (Simulation time: 1 hr 14 min 20 sec) 
Heartbeat CPU 0 instructions: 500000003 cycles: 191003595 heartbeat IPC: 3.9176 cumulative IPC: 2.61775 (Simulation time: 1 hr 15 min 2 sec) 

Warmup complete CPU 0 instructions: 500000003 cycles: 191003595 (Simulation time: 1 hr 15 min 2 sec) 

Heartbeat CPU 0 instructions: 510000002 cycles: 213220095 heartbeat IPC: 0.450116 cumulative IPC: 0.450116 (Simulation time: 1 hr 19 min 40 sec) 
Heartbeat CPU 0 instructions: 520000003 cycles: 234469575 heartbeat IPC: 0.4706 cumulative IPC: 0.46013 (Simulation time: 1 hr 23 min 18 sec) 
Heartbeat CPU 0 instructions: 530000001 cycles: 249608922 heartbeat IPC: 0.66053 cumulative IPC: 0.511899 (Simulation time: 1 hr 26 min 24 sec) 
Heartbeat CPU 0 instructions: 540000001 cycles: 266308649 heartbeat IPC: 0.598812 cumulative IPC: 0.531173 (Simulation time: 1 hr 30 min 22 sec) 
Heartbeat CPU 0 instructions: 550000002 cycles: 281745437 heartbeat IPC: 0.647803 cumulative IPC: 0.551014 (Simulation time: 1 hr 33 min 37 sec) 
Heartbeat CPU 0 instructions: 560000000 cycles: 292749941 heartbeat IPC: 0.908719 cumulative IPC: 0.589702 (Simulation time: 1 hr 36 min 31 sec) 
Heartbeat CPU 0 instructions: 570000002 cycles: 307754871 heartbeat IPC: 0.666448 cumulative IPC: 0.599565 (Simulation time: 1 hr 40 min 5 sec) 
Heartbeat CPU 0 instructions: 580000001 cycles: 316436557 heartbeat IPC: 1.15185 cumulative IPC: 0.637791 (Simulation time: 1 hr 42 min 13 sec) 
Heartbeat CPU 0 instructions: 590000003 cycles: 335449295 heartbeat IPC: 0.525963 cumulative IPC: 0.623071 (Simulation time: 1 hr 46 min 25 sec) 
Heartbeat CPU 0 instructions: 600000004 cycles: 356372147 heartbeat IPC: 0.477946 cumulative IPC: 0.60471 (Simulation time: 1 hr 51 min 11 sec) 
Heartbeat CPU 0 instructions: 610000001 cycles: 372294509 heartbeat IPC: 0.628047 cumulative IPC: 0.60676 (Simulation time: 1 hr 54 min 6 sec) 
Heartbeat CPU 0 instructions: 620000000 cycles: 386553737 heartbeat IPC: 0.7013 cumulative IPC: 0.613653 (Simulation time: 1 hr 57 min 4 sec) 
Heartbeat CPU 0 instructions: 630000002 cycles: 401432342 heartbeat IPC: 0.672106 cumulative IPC: 0.617786 (Simulation time: 2 hr 0 min 27 sec) 
Heartbeat CPU 0 instructions: 640000001 cycles: 412737283 heartbeat IPC: 0.884569 cumulative IPC: 0.631388 (Simulation time: 2 hr 3 min 11 sec) 
Heartbeat CPU 0 instructions: 650000003 cycles: 428779496 heartbeat IPC: 0.623356 cumulative IPC: 0.630846 (Simulation time: 2 hr 6 min 56 sec) 
Heartbeat CPU 0 instructions: 660000002 cycles: 443486021 heartbeat IPC: 0.67997 cumulative IPC: 0.633707 (Simulation time: 2 hr 9 min 59 sec) 
Heartbeat CPU 0 instructions: 670000000 cycles: 468247835 heartbeat IPC: 0.403848 cumulative IPC: 0.613178 (Simulation time: 2 hr 15 min 26 sec) 
Heartbeat CPU 0 instructions: 680000000 cycles: 492005631 heartbeat IPC: 0.420914 cumulative IPC: 0.598003 (Simulation time: 2 hr 20 min 37 sec) 
Heartbeat CPU 0 instructions: 690000002 cycles: 507714378 heartbeat IPC: 0.636588 cumulative IPC: 0.599916 (Simulation time: 2 hr 24 min 8 sec) 
Heartbeat CPU 0 instructions: 700000001 cycles: 524281776 heartbeat IPC: 0.603595 cumulative IPC: 0.600099 (Simulation time: 2 hr 28 min 19 sec) 
Heartbeat CPU 0 instructions: 710000004 cycles: 535322386 heartbeat IPC: 0.905747 cumulative IPC: 0.6099 (Simulation time: 2 hr 31 min 3 sec) 
Heartbeat CPU 0 instructions: 720000004 cycles: 546978448 heartbeat IPC: 0.857923 cumulative IPC: 0.618021 (Simulation time: 2 hr 34 min 29 sec) 
Heartbeat CPU 0 instructions: 730000000 cycles: 561301832 heartbeat IPC: 0.698159 cumulative IPC: 0.621121 (Simulation time: 2 hr 37 min 14 sec) 
Heartbeat CPU 0 instructions: 740000003 cycles: 571526071 heartbeat IPC: 0.978068 cumulative IPC: 0.630712 (Simulation time: 2 hr 38 min 39 sec) 
Heartbeat CPU 0 instructions: 750000002 cycles: 593905281 heartbeat IPC: 0.446843 cumulative IPC: 0.620499 (Simulation time: 2 hr 41 min 33 sec) 
Heartbeat CPU 0 instructions: 760000003 cycles: 613401008 heartbeat IPC: 0.512933 cumulative IPC: 0.615534 (Simulation time: 2 hr 44 min 9 sec) 
Heartbeat CPU 0 instructions: 770000004 cycles: 627816275 heartbeat IPC: 0.693709 cumulative IPC: 0.618114 (Simulation time: 2 hr 46 min 13 sec) 
Heartbeat CPU 0 instructions: 780000002 cycles: 644865435 heartbeat IPC: 0.586539 cumulative IPC: 0.616928 (Simulation time: 2 hr 48 min 52 sec) 
Heartbeat CPU 0 instructions: 790000004 cycles: 659145298 heartbeat IPC: 0.700287 cumulative IPC: 0.619471 (Simulation time: 2 hr 50 min 57 sec) 
Heartbeat CPU 0 instructions: 800000001 cycles: 672938747 heartbeat IPC: 0.724982 cumulative IPC: 0.62249 (Simulation time: 2 hr 53 min 1 sec) 
Heartbeat CPU 0 instructions: 810000002 cycles: 687407795 heartbeat IPC: 0.691131 cumulative IPC: 0.624491 (Simulation time: 2 hr 55 min 11 sec) 
Heartbeat CPU 0 instructions: 820000004 cycles: 696348577 heartbeat IPC: 1.11847 cumulative IPC: 0.633231 (Simulation time: 2 hr 56 min 29 sec) 
Heartbeat CPU 0 instructions: 830000003 cycles: 715115489 heartbeat IPC: 0.532853 cumulative IPC: 0.629637 (Simulation time: 2 hr 59 min 4 sec) 
Heartbeat CPU 0 instructions: 840000002 cycles: 736074826 heartbeat IPC: 0.477114 cumulative IPC: 0.623772 (Simulation time: 3 hr 1 min 48 sec) 
Heartbeat CPU 0 instructions: 850000003 cycles: 750918872 heartbeat IPC: 0.673671 cumulative IPC: 0.625095 (Simulation time: 3 hr 3 min 52 sec) 
Heartbeat CPU 0 instructions: 860000002 cycles: 765353953 heartbeat IPC: 0.692757 cumulative IPC: 0.626795 (Simulation time: 3 hr 5 min 55 sec) 
Heartbeat CPU 0 instructions: 870000000 cycles: 782768305 heartbeat IPC: 0.574239 cumulative IPC: 0.625248 (Simulation time: 3 hr 8 min 14 sec) 
Heartbeat CPU 0 instructions: 880000001 cycles: 795341942 heartbeat IPC: 0.795315 cumulative IPC: 0.628787 (Simulation time: 3 hr 10 min 6 sec) 
Heartbeat CPU 0 instructions: 890000003 cycles: 809328302 heartbeat IPC: 0.714982 cumulative IPC: 0.630737 (Simulation time: 3 hr 12 min 7 sec) 
Heartbeat CPU 0 instructions: 900000001 cycles: 818189062 heartbeat IPC: 1.12857 cumulative IPC: 0.63777 (Simulation time: 3 hr 13 min 25 sec) 
Heartbeat CPU 0 instructions: 910000000 cycles: 838604012 heartbeat IPC: 0.489837 cumulative IPC: 0.633106 (Simulation time: 3 hr 16 min 6 sec) 
Heartbeat CPU 0 instructions: 920000003 cycles: 860893447 heartbeat IPC: 0.448643 cumulative IPC: 0.626969 (Simulation time: 3 hr 18 min 58 sec) 
Heartbeat CPU 0 instructions: 930000000 cycles: 876645063 heartbeat IPC: 0.634855 cumulative IPC: 0.62715 (Simulation time: 3 hr 21 min 6 sec) 
Heartbeat CPU 0 instructions: 940000000 cycles: 889728672 heartbeat IPC: 0.764315 cumulative IPC: 0.629718 (Simulation time: 3 hr 23 min 0 sec) 
Heartbeat CPU 0 instructions: 950000000 cycles: 902364848 heartbeat IPC: 0.791379 cumulative IPC: 0.63259 (Simulation time: 3 hr 24 min 53 sec) 
Heartbeat CPU 0 instructions: 960000002 cycles: 913819093 heartbeat IPC: 0.873039 cumulative IPC: 0.6364 (Simulation time: 3 hr 26 min 37 sec) 
Heartbeat CPU 0 instructions: 970000002 cycles: 928193610 heartbeat IPC: 0.695676 cumulative IPC: 0.637556 (Simulation time: 3 hr 28 min 41 sec) 
Heartbeat CPU 0 instructions: 980000001 cycles: 940210620 heartbeat IPC: 0.832154 cumulative IPC: 0.640677 (Simulation time: 3 hr 30 min 17 sec) 
Heartbeat CPU 0 instructions: 990000001 cycles: 963723939 heartbeat IPC: 0.425291 cumulative IPC: 0.634123 (Simulation time: 3 hr 33 min 16 sec) 
Heartbeat CPU 0 instructions: 1000000004 cycles: 988723971 heartbeat IPC: 0.4 cumulative IPC: 0.626786 (Simulation time: 3 hr 36 min 24 sec) 
Heartbeat CPU 0 instructions: 1010000002 cycles: 1005742563 heartbeat IPC: 0.587593 cumulative IPC: 0.625967 (Simulation time: 3 hr 38 min 41 sec) 
Heartbeat CPU 0 instructions: 1020000001 cycles: 1022486554 heartbeat IPC: 0.597229 cumulative IPC: 0.625389 (Simulation time: 3 hr 40 min 55 sec) 
Heartbeat CPU 0 instructions: 1030000003 cycles: 1033953116 heartbeat IPC: 0.872101 cumulative IPC: 0.628745 (Simulation time: 3 hr 42 min 42 sec) 
Heartbeat CPU 0 instructions: 1040000004 cycles: 1046326488 heartbeat IPC: 0.808187 cumulative IPC: 0.631341 (Simulation time: 3 hr 44 min 33 sec) 
Heartbeat CPU 0 instructions: 1050000004 cycles: 1060431461 heartbeat IPC: 0.70897 cumulative IPC: 0.6326 (Simulation time: 3 hr 46 min 36 sec) 
Heartbeat CPU 0 instructions: 1060000001 cycles: 1071376000 heartbeat IPC: 0.913697 cumulative IPC: 0.636094 (Simulation time: 3 hr 48 min 5 sec) 
Heartbeat CPU 0 instructions: 1070000000 cycles: 1091019628 heartbeat IPC: 0.509071 cumulative IPC: 0.633322 (Simulation time: 3 hr 50 min 41 sec) 
Heartbeat CPU 0 instructions: 1080000003 cycles: 1113007281 heartbeat IPC: 0.454801 cumulative IPC: 0.629065 (Simulation time: 3 hr 53 min 32 sec) 
Heartbeat CPU 0 instructions: 1090000002 cycles: 1129937982 heartbeat IPC: 0.590643 cumulative IPC: 0.628372 (Simulation time: 3 hr 55 min 45 sec) 
Heartbeat CPU 0 instructions: 1100000000 cycles: 1145807303 heartbeat IPC: 0.630147 cumulative IPC: 0.628401 (Simulation time: 3 hr 57 min 56 sec) 
Heartbeat CPU 0 instructions: 1110000000 cycles: 1160699252 heartbeat IPC: 0.671504 cumulative IPC: 0.629063 (Simulation time: 4 hr 0 min 4 sec) 
Heartbeat CPU 0 instructions: 1120000002 cycles: 1176342952 heartbeat IPC: 0.639235 cumulative IPC: 0.629225 (Simulation time: 4 hr 2 min 13 sec) 
Heartbeat CPU 0 instructions: 1130000001 cycles: 1192012979 heartbeat IPC: 0.638161 cumulative IPC: 0.629365 (Simulation time: 4 hr 4 min 26 sec) 
Heartbeat CPU 0 instructions: 1140000002 cycles: 1201072140 heartbeat IPC: 1.10386 cumulative IPC: 0.63362 (Simulation time: 4 hr 5 min 45 sec) 
Heartbeat CPU 0 instructions: 1150000002 cycles: 1217485300 heartbeat IPC: 0.609267 cumulative IPC: 0.633231 (Simulation time: 4 hr 8 min 1 sec) 
Heartbeat CPU 0 instructions: 1160000002 cycles: 1239966630 heartbeat IPC: 0.444814 cumulative IPC: 0.629193 (Simulation time: 4 hr 10 min 56 sec) 
Heartbeat CPU 0 instructions: 1170000004 cycles: 1257880377 heartbeat IPC: 0.558231 cumulative IPC: 0.628001 (Simulation time: 4 hr 13 min 17 sec) 
Heartbeat CPU 0 instructions: 1180000002 cycles: 1271008640 heartbeat IPC: 0.761715 cumulative IPC: 0.629627 (Simulation time: 4 hr 15 min 11 sec) 
Heartbeat CPU 0 instructions: 1190000001 cycles: 1286768053 heartbeat IPC: 0.634541 cumulative IPC: 0.629697 (Simulation time: 4 hr 17 min 23 sec) 
Heartbeat CPU 0 instructions: 1200000000 cycles: 1301240713 heartbeat IPC: 0.690958 cumulative IPC: 0.630496 (Simulation time: 4 hr 19 min 24 sec) 
Heartbeat CPU 0 instructions: 1210000004 cycles: 1315817280 heartbeat IPC: 0.686033 cumulative IPC: 0.631216 (Simulation time: 4 hr 21 min 31 sec) 
Heartbeat CPU 0 instructions: 1220000002 cycles: 1326650182 heartbeat IPC: 0.923113 cumulative IPC: 0.634 (Simulation time: 4 hr 23 min 0 sec) 
Heartbeat CPU 0 instructions: 1230000004 cycles: 1346353987 heartbeat IPC: 0.507516 cumulative IPC: 0.631843 (Simulation time: 4 hr 25 min 35 sec) 
Heartbeat CPU 0 instructions: 1240000002 cycles: 1369847136 heartbeat IPC: 0.425656 cumulative IPC: 0.627734 (Simulation time: 4 hr 28 min 36 sec) 
Heartbeat CPU 0 instructions: 1250000004 cycles: 1387563364 heartbeat IPC: 0.564454 cumulative IPC: 0.626797 (Simulation time: 4 hr 30 min 55 sec) 
Heartbeat CPU 0 instructions: 1260000002 cycles: 1404336218 heartbeat IPC: 0.596201 cumulative IPC: 0.626374 (Simulation time: 4 hr 33 min 9 sec) 
Heartbeat CPU 0 instructions: 1270000000 cycles: 1415106685 heartbeat IPC: 0.928465 cumulative IPC: 0.629032 (Simulation time: 4 hr 34 min 51 sec) 
Heartbeat CPU 0 instructions: 1280000002 cycles: 1427623573 heartbeat IPC: 0.798921 cumulative IPC: 0.630752 (Simulation time: 4 hr 36 min 41 sec) 
Heartbeat CPU 0 instructions: 1290000004 cycles: 1441923614 heartbeat IPC: 0.699299 cumulative IPC: 0.631535 (Simulation time: 4 hr 38 min 47 sec) 
Heartbeat CPU 0 instructions: 1300000001 cycles: 1457128831 heartbeat IPC: 0.657669 cumulative IPC: 0.631849 (Simulation time: 4 hr 40 min 43 sec) 
Heartbeat CPU 0 instructions: 1310000004 cycles: 1478345668 heartbeat IPC: 0.471324 cumulative IPC: 0.629203 (Simulation time: 4 hr 43 min 24 sec) 
Heartbeat CPU 0 instructions: 1320000001 cycles: 1500264820 heartbeat IPC: 0.456222 cumulative IPC: 0.626307 (Simulation time: 4 hr 46 min 15 sec) 
Heartbeat CPU 0 instructions: 1330000002 cycles: 1517644269 heartbeat IPC: 0.575392 cumulative IPC: 0.62564 (Simulation time: 4 hr 48 min 31 sec) 
Heartbeat CPU 0 instructions: 1340000000 cycles: 1533431712 heartbeat IPC: 0.633415 cumulative IPC: 0.625732 (Simulation time: 4 hr 50 min 41 sec) 
Heartbeat CPU 0 instructions: 1350000001 cycles: 1544377772 heartbeat IPC: 0.913571 cumulative IPC: 0.62806 (Simulation time: 4 hr 52 min 27 sec) 
Heartbeat CPU 0 instructions: 1360000000 cycles: 1558492471 heartbeat IPC: 0.708481 cumulative IPC: 0.62889 (Simulation time: 4 hr 54 min 27 sec) 
Heartbeat CPU 0 instructions: 1370000002 cycles: 1572343211 heartbeat IPC: 0.721983 cumulative IPC: 0.629823 (Simulation time: 4 hr 56 min 30 sec) 
Heartbeat CPU 0 instructions: 1380000000 cycles: 1581739643 heartbeat IPC: 1.06423 cumulative IPC: 0.632758 (Simulation time: 4 hr 57 min 50 sec) 
Heartbeat CPU 0 instructions: 1390000003 cycles: 1598522468 heartbeat IPC: 0.595847 cumulative IPC: 0.632318 (Simulation time: 5 hr 0 min 8 sec) 
Heartbeat CPU 0 instructions: 1400000002 cycles: 1619705798 heartbeat IPC: 0.472069 cumulative IPC: 0.629942 (Simulation time: 5 hr 2 min 56 sec) 
Heartbeat CPU 0 instructions: 1410000003 cycles: 1636964668 heartbeat IPC: 0.579412 cumulative IPC: 0.629339 (Simulation time: 5 hr 5 min 11 sec) 
Heartbeat CPU 0 instructions: 1420000000 cycles: 1649589468 heartbeat IPC: 0.792091 cumulative IPC: 0.630748 (Simulation time: 5 hr 7 min 3 sec) 
Heartbeat CPU 0 instructions: 1430000004 cycles: 1664699410 heartbeat IPC: 0.661816 cumulative IPC: 0.631066 (Simulation time: 5 hr 9 min 14 sec) 
Heartbeat CPU 0 instructions: 1440000002 cycles: 1680987660 heartbeat IPC: 0.613939 cumulative IPC: 0.630879 (Simulation time: 5 hr 11 min 25 sec) 
Heartbeat CPU 0 instructions: 1450000000 cycles: 1694840044 heartbeat IPC: 0.721897 cumulative IPC: 0.631718 (Simulation time: 5 hr 13 min 29 sec) 
Heartbeat CPU 0 instructions: 1460000004 cycles: 1704246300 heartbeat IPC: 1.06312 cumulative IPC: 0.634399 (Simulation time: 5 hr 14 min 50 sec) 
Heartbeat CPU 0 instructions: 1470000000 cycles: 1720965629 heartbeat IPC: 0.59811 cumulative IPC: 0.634003 (Simulation time: 5 hr 17 min 6 sec) 
Heartbeat CPU 0 instructions: 1480000003 cycles: 1743269164 heartbeat IPC: 0.44836 cumulative IPC: 0.631335 (Simulation time: 5 hr 20 min 3 sec) 
Heartbeat CPU 0 instructions: 1490000004 cycles: 1762389810 heartbeat IPC: 0.522995 cumulative IPC: 0.630017 (Simulation time: 5 hr 22 min 28 sec) 
Heartbeat CPU 0 instructions: 1500000002 cycles: 1774126259 heartbeat IPC: 0.852046 cumulative IPC: 0.631663 (Simulation time: 5 hr 24 min 16 sec) 
Heartbeat CPU 0 instructions: 1510000001 cycles: 1785945483 heartbeat IPC: 0.846079 cumulative IPC: 0.633252 (Simulation time: 5 hr 26 min 7 sec) 
Heartbeat CPU 0 instructions: 1520000000 cycles: 1798571821 heartbeat IPC: 0.791995 cumulative IPC: 0.634499 (Simulation time: 5 hr 27 min 57 sec) 
Heartbeat CPU 0 instructions: 1530000003 cycles: 1812182099 heartbeat IPC: 0.734739 cumulative IPC: 0.63534 (Simulation time: 5 hr 29 min 59 sec) 
Heartbeat CPU 0 instructions: 1540000000 cycles: 1821478502 heartbeat IPC: 1.07568 cumulative IPC: 0.637851 (Simulation time: 5 hr 31 min 19 sec) 
Heartbeat CPU 0 instructions: 1550000002 cycles: 1839413119 heartbeat IPC: 0.557581 cumulative IPC: 0.636978 (Simulation time: 5 hr 33 min 41 sec) 
Heartbeat CPU 0 instructions: 1560000000 cycles: 1866599608 heartbeat IPC: 0.36783 cumulative IPC: 0.632611 (Simulation time: 5 hr 37 min 6 sec) 
Heartbeat CPU 0 instructions: 1570000000 cycles: 1885441019 heartbeat IPC: 0.530746 cumulative IPC: 0.631478 (Simulation time: 5 hr 39 min 32 sec) 
Heartbeat CPU 0 instructions: 1580000003 cycles: 1900523303 heartbeat IPC: 0.66303 cumulative IPC: 0.631756 (Simulation time: 5 hr 41 min 38 sec) 
Heartbeat CPU 0 instructions: 1590000000 cycles: 1914390224 heartbeat IPC: 0.72114 cumulative IPC: 0.632476 (Simulation time: 5 hr 43 min 36 sec) 
Heartbeat CPU 0 instructions: 1600000002 cycles: 1927355485 heartbeat IPC: 0.771292 cumulative IPC: 0.633512 (Simulation time: 5 hr 45 min 29 sec) 
Heartbeat CPU 0 instructions: 1610000002 cycles: 1941279981 heartbeat IPC: 0.718159 cumulative IPC: 0.634186 (Simulation time: 5 hr 47 min 34 sec) 
Heartbeat CPU 0 instructions: 1620000004 cycles: 1953653442 heartbeat IPC: 0.808181 cumulative IPC: 0.635407 (Simulation time: 5 hr 49 min 12 sec) 
Heartbeat CPU 0 instructions: 1630000000 cycles: 1970485287 heartbeat IPC: 0.594112 cumulative IPC: 0.635016 (Simulation time: 5 hr 51 min 26 sec) 
Heartbeat CPU 0 instructions: 1640000000 cycles: 1995603626 heartbeat IPC: 0.398115 cumulative IPC: 0.631719 (Simulation time: 5 hr 54 min 39 sec) 
Heartbeat CPU 0 instructions: 1650000004 cycles: 2013782673 heartbeat IPC: 0.550084 cumulative IPC: 0.630905 (Simulation time: 5 hr 56 min 58 sec) 
Heartbeat CPU 0 instructions: 1660000003 cycles: 2027938001 heartbeat IPC: 0.706448 cumulative IPC: 0.631487 (Simulation time: 5 hr 59 min 2 sec) 
Heartbeat CPU 0 instructions: 1670000000 cycles: 2042934775 heartbeat IPC: 0.66681 cumulative IPC: 0.631773 (Simulation time: 6 hr 1 min 11 sec) 
Heartbeat CPU 0 instructions: 1680000003 cycles: 2060347627 heartbeat IPC: 0.574289 cumulative IPC: 0.631237 (Simulation time: 6 hr 3 min 29 sec) 
Heartbeat CPU 0 instructions: 1690000002 cycles: 2075029139 heartbeat IPC: 0.681129 cumulative IPC: 0.631626 (Simulation time: 6 hr 5 min 38 sec) 
Heartbeat CPU 0 instructions: 1700000004 cycles: 2085290959 heartbeat IPC: 0.974486 cumulative IPC: 0.633484 (Simulation time: 6 hr 7 min 5 sec) 
Heartbeat CPU 0 instructions: 1710000001 cycles: 2098911224 heartbeat IPC: 0.7342 cumulative IPC: 0.634203 (Simulation time: 6 hr 9 min 0 sec) 
Heartbeat CPU 0 instructions: 1720000003 cycles: 2107620408 heartbeat IPC: 1.14821 cumulative IPC: 0.636538 (Simulation time: 6 hr 10 min 28 sec) 
Heartbeat CPU 0 instructions: 1730000004 cycles: 2115332848 heartbeat IPC: 1.29661 cumulative IPC: 0.639184 (Simulation time: 6 hr 11 min 50 sec) 
Heartbeat CPU 0 instructions: 1740000000 cycles: 2122852889 heartbeat IPC: 1.32978 cumulative IPC: 0.641872 (Simulation time: 6 hr 13 min 9 sec) 
Heartbeat CPU 0 instructions: 1750000000 cycles: 2130354361 heartbeat IPC: 1.33307 cumulative IPC: 0.644546 (Simulation time: 6 hr 14 min 28 sec) 
Heartbeat CPU 0 instructions: 1760000002 cycles: 2138102089 heartbeat IPC: 1.2907 cumulative IPC: 0.647117 (Simulation time: 6 hr 15 min 50 sec) 
Heartbeat CPU 0 instructions: 1770000004 cycles: 2145592326 heartbeat IPC: 1.33507 cumulative IPC: 0.649753 (Simulation time: 6 hr 17 min 9 sec) 
Heartbeat CPU 0 instructions: 1780000004 cycles: 2153177407 heartbeat IPC: 1.31838 cumulative IPC: 0.652338 (Simulation time: 6 hr 18 min 29 sec) 
Heartbeat CPU 0 instructions: 1790000000 cycles: 2160841775 heartbeat IPC: 1.30474 cumulative IPC: 0.654876 (Simulation time: 6 hr 19 min 50 sec) 
Heartbeat CPU 0 instructions: 1800000004 cycles: 2168398770 heartbeat IPC: 1.32328 cumulative IPC: 0.657431 (Simulation time: 6 hr 21 min 9 sec) 
Heartbeat CPU 0 instructions: 1810000000 cycles: 2176057225 heartbeat IPC: 1.30575 cumulative IPC: 0.659932 (Simulation time: 6 hr 22 min 31 sec) 
Heartbeat CPU 0 instructions: 1820000003 cycles: 2183729636 heartbeat IPC: 1.30337 cumulative IPC: 0.662409 (Simulation time: 6 hr 23 min 51 sec) 
Heartbeat CPU 0 instructions: 1830000001 cycles: 2191258252 heartbeat IPC: 1.32827 cumulative IPC: 0.664915 (Simulation time: 6 hr 25 min 10 sec) 
Heartbeat CPU 0 instructions: 1840000001 cycles: 2198905622 heartbeat IPC: 1.30764 cumulative IPC: 0.667363 (Simulation time: 6 hr 26 min 31 sec) 
Heartbeat CPU 0 instructions: 1850000002 cycles: 2206578445 heartbeat IPC: 1.3033 cumulative IPC: 0.669784 (Simulation time: 6 hr 27 min 52 sec) 
Heartbeat CPU 0 instructions: 1860000003 cycles: 2214163561 heartbeat IPC: 1.31837 cumulative IPC: 0.672216 (Simulation time: 6 hr 29 min 13 sec) 
Heartbeat CPU 0 instructions: 1870000003 cycles: 2221801517 heartbeat IPC: 1.30925 cumulative IPC: 0.674612 (Simulation time: 6 hr 30 min 34 sec) 
Heartbeat CPU 0 instructions: 1880000003 cycles: 2229440550 heartbeat IPC: 1.30907 cumulative IPC: 0.676989 (Simulation time: 6 hr 31 min 54 sec) 
Heartbeat CPU 0 instructions: 1890000000 cycles: 2236969932 heartbeat IPC: 1.32813 cumulative IPC: 0.679386 (Simulation time: 6 hr 33 min 14 sec) 
Heartbeat CPU 0 instructions: 1900000003 cycles: 2244621996 heartbeat IPC: 1.30684 cumulative IPC: 0.681724 (Simulation time: 6 hr 34 min 34 sec) 
Heartbeat CPU 0 instructions: 1910000004 cycles: 2252239741 heartbeat IPC: 1.31272 cumulative IPC: 0.684056 (Simulation time: 6 hr 35 min 55 sec) 
Heartbeat CPU 0 instructions: 1920000000 cycles: 2259820004 heartbeat IPC: 1.31921 cumulative IPC: 0.686383 (Simulation time: 6 hr 37 min 15 sec) 
Heartbeat CPU 0 instructions: 1930000002 cycles: 2267527050 heartbeat IPC: 1.29751 cumulative IPC: 0.688651 (Simulation time: 6 hr 38 min 37 sec) 
Heartbeat CPU 0 instructions: 1940000000 cycles: 2275064830 heartbeat IPC: 1.32665 cumulative IPC: 0.690959 (Simulation time: 6 hr 39 min 57 sec) 
Heartbeat CPU 0 instructions: 1950000000 cycles: 2282708090 heartbeat IPC: 1.30834 cumulative IPC: 0.693215 (Simulation time: 6 hr 41 min 18 sec) 
Heartbeat CPU 0 instructions: 1960000003 cycles: 2290472982 heartbeat IPC: 1.28785 cumulative IPC: 0.695414 (Simulation time: 6 hr 42 min 39 sec) 
Heartbeat CPU 0 instructions: 1970000004 cycles: 2298025660 heartbeat IPC: 1.32403 cumulative IPC: 0.697667 (Simulation time: 6 hr 43 min 59 sec) 
Heartbeat CPU 0 instructions: 1980000000 cycles: 2305615249 heartbeat IPC: 1.31759 cumulative IPC: 0.699892 (Simulation time: 6 hr 45 min 19 sec) 
Heartbeat CPU 0 instructions: 1990000001 cycles: 2313324702 heartbeat IPC: 1.29711 cumulative IPC: 0.702062 (Simulation time: 6 hr 46 min 39 sec) 
*** Reached end of trace: traces/654.roms_s-523B.champsimtrace.xz
Heartbeat CPU 0 instructions: 2000000001 cycles: 2320878171 heartbeat IPC: 1.32389 cumulative IPC: 0.704267 (Simulation time: 6 hr 47 min 58 sec) 
Finished CPU 0 instructions: 1500000000 cycles: 2129874824 cumulative IPC: 0.704267 (Simulation time: 6 hr 47 min 58 sec) 

ChampSim completed all CPUs

Region of Interest Statistics

CPU 0 cumulative IPC: 0.704267 instructions: 1500000000 cycles: 2129874824
cpu0_DTLB TOTAL     ACCESS:  363553125  HIT:  362733797  MISS:     819328
cpu0_DTLB LOAD      ACCESS:  326652733  HIT:  325959174  MISS:     693559
cpu0_DTLB RFO       ACCESS:   36900392  HIT:   36774623  MISS:     125769
cpu0_DTLB PREFETCH  ACCESS:          0  HIT:          0  MISS:          0
cpu0_DTLB WRITEBACK ACCESS:          0  HIT:          0  MISS:          0
cpu0_DTLB TRANSLATION ACCESS:          0  HIT:          0  MISS:          0
cpu0_DTLB PREFETCH  REQUESTED:          0  ISSUED:          0  USEFUL:          0  USELESS:          0
cpu0_DTLB AVERAGE MISS LATENCY: 55.3272 cycles
cpu0_ITLB TOTAL     ACCESS:   14820806  HIT:   14820804  MISS:          2
cpu0_ITLB LOAD      ACCESS:   14820806  HIT:   14820804  MISS:          2
cpu0_ITLB RFO       ACCESS:          0  HIT:          0  MISS:          0
cpu0_ITLB PREFETCH  ACCESS:          0  HIT:          0  MISS:          0
cpu0_ITLB WRITEBACK ACCESS:          0  HIT:          0  MISS:          0
cpu0_ITLB TRANSLATION ACCESS:          0  HIT:          0  MISS:          0
cpu0_ITLB PREFETCH  REQUESTED:          0  ISSUED:          0  USEFUL:          0  USELESS:          0
cpu0_ITLB AVERAGE MISS LATENCY: 233 cycles
cpu0_L1I TOTAL     ACCESS:      21519  HIT:      21402  MISS:        117
cpu0_L1I LOAD      ACCESS:      21519  HIT:      21402  MISS:        117
cpu0_L1I RFO       ACCESS:          0  HIT:          0  MISS:          0
cpu0_L1I PREFETCH  ACCESS:          0  HIT:          0  MISS:          0
cpu0_L1I WRITEBACK ACCESS:          0  HIT:          0  MISS:          0
cpu0_L1I TRANSLATION ACCESS:          0  HIT:          0  MISS:          0
cpu0_L1I PREFETCH  REQUESTED:          0  ISSUED:          0  USEFUL:          0  USELESS:          0
cpu0_L1I AVERAGE MISS LATENCY: 246.393 cycles
cpu0_STLB TOTAL     ACCESS:     819330  HIT:     123038  MISS:     696292
cpu0_STLB LOAD      ACCESS:     693561  HIT:     107095  MISS:     586466
cpu0_STLB RFO       ACCESS:     125769  HIT:      15943  MISS:     109826
cpu0_STLB PREFETCH  ACCESS:          0  HIT:          0  MISS:          0
cpu0_STLB WRITEBACK ACCESS:          0  HIT:          0  MISS:          0
cpu0_STLB TRANSLATION ACCESS:          0  HIT:          0  MISS:          0
cpu0_STLB PREFETCH  REQUESTED:          0  ISSUED:          0  USEFUL:          0  USELESS:          0
cpu0_STLB AVERAGE MISS LATENCY: 54.4818 cycles
cpu0_L1D TOTAL     ACCESS:  269023440  HIT:  234541744  MISS:   34481696
cpu0_L1D LOAD      ACCESS:  220077804  HIT:  193583013  MISS:   26494791
cpu0_L1D RFO       ACCESS:   48263920  HIT:   40299055  MISS:    7964865
cpu0_L1D PREFETCH  ACCESS:          0  HIT:          0  MISS:          0
cpu0_L1D WRITEBACK ACCESS:          0  HIT:          0  MISS:          0
cpu0_L1D TRANSLATION ACCESS:     681716  HIT:     659676  MISS:      22040
cpu0_L1D PREFETCH  REQUESTED:          0  ISSUED:          0  USEFUL:          0  USELESS:          0
cpu0_L1D AVERAGE MISS LATENCY: 362.26 cycles
cpu0_L2C TOTAL     ACCESS:   45462113  HIT:   12152970  MISS:   33309143
cpu0_L2C LOAD      ACCESS:   26494878  HIT:     928672  MISS:   25566206
cpu0_L2C RFO       ACCESS:    7964865  HIT:     244247  MISS:    7720618
cpu0_L2C PREFETCH  ACCESS:          0  HIT:          0  MISS:          0
cpu0_L2C WRITEBACK ACCESS:   10980330  HIT:   10978947  MISS:       1383
cpu0_L2C TRANSLATION ACCESS:      22040  HIT:       1104  MISS:      20936
cpu0_L2C PREFETCH  REQUESTED:          0  ISSUED:          0  USEFUL:          0  USELESS:          0
cpu0_L2C AVERAGE MISS LATENCY: 363.61 cycles
LLC TOTAL     ACCESS:   44155020  HIT:   14264459  MISS:   29890561
LLC LOAD      ACCESS:   25566170  HIT:    2676554  MISS:   22889616
LLC RFO       ACCESS:    7720610  HIT:     726438  MISS:    6994172
LLC PREFETCH  ACCESS:          0  HIT:          0  MISS:          0
LLC WRITEBACK ACCESS:   10847304  HIT:   10845233  MISS:       2071
LLC TRANSLATION ACCESS:      20936  HIT:      16234  MISS:       4702
LLC PREFETCH  REQUESTED:          0  ISSUED:          0  USEFUL:          0  USELESS:          0
LLC AVERAGE MISS LATENCY: 381.794 cycles
~~~~~~~~~~Reuse Distance Profiler output~~~~~~~~~~
0	41674256	15836032
1	37976544	26203616
2	34983184	30159184
3	33579040	30945424
4	32428720	31163776
5	23877616	22522288
6	19432144	18327872
7	16617536	15330624
8	14715744	13397696
9	13345424	12299808
10	16344560	15212128
11	16668976	15197296
12	17242912	15413280
13	15282832	13949248
14	9030448	8303536
15	8471440	7399056
16	4376512	3846544
17	3179808	2559872
18	1826656	1515840
19	1269936	1010672
20	1004112	867472
21	758176	645344
22	580512	479136
23	572400	478400
24	533296	428080
25	398624	314448
26	377088	275872
27	349344	243040
28	401232	297280
29	266960	154160
30	312368	154480
31	301072	146640
32	297488	108416
33	283760	139072
34	240448	105392
35	251872	151792
36	222128	128000
37	189056	129472
38	203792	157616
39	122752	78592
40	112416	73232
41	100880	68288
42	104880	78560
43	93952	70080
44	108992	88416
45	95024	76704
46	127600	113392
47	106832	93312
48	130928	118032
49	158640	147488
50	87520	78736
51	85296	77488
52	85568	77904
53	62128	55568
54	65568	58816
55	57472	51920
56	47120	42256
57	35984	30992
58	32864	28304
59	35440	30208
60	40800	35872
61	30256	26064
62	28160	24336
63	38848	36112
64	91808	86320
66	80880	76032
68	150096	143744
70	148800	142480
72	191680	184320
74	211312	204960
76	76752	70864
78	91696	87888
80	52368	49232
82	42192	40160
84	17088	15280
86	13104	11552
88	11584	11120
90	5664	5232
92	4832	4672
94	3376	3328
96	3808	3792
98	6944	6928
100	4256	4256
102	2336	2336
104	1968	1968
106	1808	1808
108	1312	1312
110	2016	2016
112	3264	3264
114	2960	2960
116	2256	2256
118	4016	4016
120	1040	1040
122	1088	1088
124	2256	2256
126	1600	1600
128	2096	2096
132	896	896
136	624	624
140	432	432
144	464	464
148	224	224
152	448	448
156	352	352
160	384	384
164	304	304
168	208	208
172	240	240
176	208	208
180	192	192
184	224	224
188	176	176
192	240	240
196	256	256
200	128	128
204	256	256
208	80	80
212	80	80
216	160	160
220	224	224
224	112	112
228	160	160
232	48	48
236	192	192
240	96	96
244	208	208
248	256	256
252	128	128
256	384	384
264	272	272
272	352	352
280	352	352
288	448	448
296	320	320
304	464	464
312	448	416
320	736	736
328	3360	3360
336	9856	9856
344	10176	10176
352	8848	8848
360	12080	12080
368	14304	14304
376	16544	16544
384	14992	14992
392	8256	8256
400	2848	2848
408	1536	1536
416	960	960
424	672	672
432	384	384
440	352	352
448	496	496
456	448	448
464	544	544
472	560	560
480	1536	1536
488	5808	5808
496	20224	20224
504	52128	52128
512	273120	273120
528	489680	489680
544	422016	422016
560	455232	455232
576	328208	328208
592	40608	40608
608	1744	1744
624	768	768
640	576	576
656	1152	1152
672	2416	2416
688	17888	17888
704	87568	87568
720	245088	245088
736	148720	148720
752	139696	139696
768	190944	190944
784	272336	272336
800	294416	294416
816	233872	233872
832	169856	169856
848	134928	134928
864	127744	127744
880	139440	139440
896	143568	143568
912	130848	130848
928	90528	90528
944	49328	49328
960	156944	156944
976	351056	351056
992	356640	356640
1008	227616	227616
1024	129584	129584
1056	12016	12016
1088	2960	2960
1120	3456	3440
1152	3824	3824
1184	2272	2272
1216	1200	1200
1248	4720	4720
1280	5616	5616
1312	5888	5888
1344	7760	7760
1376	4736	4736
1408	6992	6992
1440	207600	207600
1472	189392	189392
1504	286464	286464
1536	137824	137824
1568	137696	137696
1600	69120	69120
1632	71344	71344
1664	51344	51344
1696	84416	84416
1728	130544	130544
1760	179552	179552
1792	200032	200032
1824	204384	204384
1856	188976	188976
1888	168528	168528
1920	155504	155504
1952	153472	153472
1984	163776	163776
2016	174816	174816
2048	341088	341088
2112	270944	270944
2176	142672	142672
2240	33600	33600
2304	94368	94368
2368	127312	127312
2432	396672	396672
2496	955424	955424
2560	663280	663280
2624	812080	812080
2688	685136	685120
2752	401968	401968
2816	34496	34496
2880	1984	1968
2944	1296	1296
3008	912	912
3072	697984	697984
3136	70752	70752
3200	20944	20944
3264	77200	77200
3328	210880	210880
3392	230640	230640
3456	157936	157936
3520	161328	161328
3584	248192	248192
3648	147824	147824
3712	122976	122976
3776	150592	150592
3840	66016	66016
3904	30960	30960
3968	16832	16832
4032	13440	13440
4096	33648	33648
4224	20080	20080
4352	11664	11664
4480	57200	57200
4608	47488	47488
4736	127024	127024
4864	199232	199232
4992	127088	127088
5120	13696	13696
5248	168304	168304
5376	592000	592000
5504	181376	181376
5632	1328	1328
5760	1760	1760
5888	1600	1600
6016	1600	1600
6144	1584	1584
6272	1616	1616
6400	1456	1456
6528	4192	4192
6656	10096	10096
6784	62384	62384
6912	481776	481776
7040	125056	125056
7168	12320	12320
7296	1536	1536
7424	1632	1632
7552	3136	3136
7680	4224	4224
7808	2272	2272
7936	2096	2096
8064	2208	2208
8192	168528	168528
8448	55488	55488
8704	13392	13392
8960	3600	3600
9216	3040	3040
9472	2976	2976
9728	3312	3312
9984	3424	3424
10240	3168	3168
10496	3072	3072
10752	3056	3056
11008	3136	3136
11264	2192	2192
11520	1472	1472
11776	1456	1456
12032	144	144
12288	0	0
12544	0	0
12800	0	0
13056	0	0
13312	0	0
13568	0	0
13824	0	0
14080	0	0
14336	0	0
14592	0	0
14848	0	0
15104	0	0
15360	0	0
15616	0	0
15872	0	0
16128	0	0
16384	0	0
16896	0	0
17408	0	0
17920	0	0
18432	0	0
18944	0	0
19456	0	0
19968	0	0
20480	0	0
20992	0	0
21504	0	0
22016	0	0
22528	0	0
23040	0	0
23552	0	0
24064	0	0
24576	0	0
25088	0	0
25600	0	0
26112	0	0
26624	0	0
27136	0	0
27648	0	0
28160	0	0
28672	0	0
29184	0	0
29696	0	0
30208	224	224
30720	224	224
31232	288	288
31744	32	32
32256	304	304
32768	2112	2112
33792	9952	3024
34816	15472	4064
35840	14288	5056
36864	13728	4432
37888	13568	4208
38912	13504	4432
39936	14080	4528
40960	14016	4640
41984	13952	4464
43008	14624	5472
44032	20144	10912
45056	23696	14368
46080	30032	20560
47104	35136	25152
48128	34720	24752
49152	34144	23744
50176	34736	24192
51200	34208	23920
52224	35040	24448
53248	33392	23664
54272	34672	24496
55296	33344	23584
56320	34256	23728
57344	34960	24304
58368	32208	22448
59392	33184	22544
60416	33712	23248
61440	33728	23376
62464	31712	21792
63488	71824	61952
64512	314672	303952
65536	227440	205328
67584	72384	51360
69632	72912	51488
71680	73712	51312
73728	75568	53040
75776	74592	53424
77824	61456	52560
79872	48624	43616
81920	31712	27008
83968	26416	21744
86016	23808	19232
88064	18848	16992
90112	992	848
92160	320	0
94208	208	0
96256	3264	0
98304	24464	48
100352	23536	128
102400	23936	0
104448	22352	0
106496	24896	176
108544	25440	528
110592	26256	976
112640	29312	1472
114688	55344	26528
116736	87632	60176
118784	118080	89552
120832	133248	104848
122880	150112	123616
124928	79680	54576
126976	26512	464
129024	25792	0
131072	42976	0
135168	10064	0
139264	8672	0
143360	4896	0
147456	1392	1376
151552	119632	119632
155648	339712	339712
159744	16064	16064
163840	704	16
167936	8592	192
172032	9008	48
176128	49920	44032
180224	227184	227136
184320	171472	171472
188416	21712	21712
192512	1104	1104
196608	1872	1856
200704	2176	2176
204800	1600	1600
208896	1744	1744
212992	1712	1712
217088	1824	1824
221184	1728	1728
225280	1872	1872
229376	1488	1488
233472	1856	1856
237568	2368	2368
241664	2448	2448
245760	2448	2448
249856	2368	2368
253952	2128	2128
258048	1776	1776
262144	3632	3632
270336	4064	4064
278528	5424	5424
286720	8752	8752
294912	30832	30832
303104	910320	910320
311296	10976	10976
319488	11248	11248
327680	11392	11392
335872	10704	10704
344064	10528	10528
352256	10912	10912
360448	11312	11312
368640	12144	12144
376832	14512	14512
385024	17104	17104
393216	20304	20304
401408	23504	23504
409600	23488	23488
417792	24384	24368
425984	25440	25440
434176	24768	24768
442368	25696	25696
450560	24160	24160
458752	24592	24592
466944	25152	25152
475136	28096	28096
483328	30384	30384
491520	31648	31648
499712	31680	31680
507904	34032	33760
516096	34512	32592
524288	72480	66272
540672	74832	69184
557056	72832	66896
573440	73344	67248
589824	72096	66640
606208	73488	67728
622592	73648	68032
638976	74256	68144
655360	73776	67376
671744	75760	69824
688128	74336	68656
704512	77472	71184
720896	78592	72240
737280	72752	67152
753664	74224	68672
770048	77024	70944
786432	76576	70560
802816	77728	71584
819200	81328	75152
835584	84288	78256
851968	85264	78896
868352	86224	80256
884736	83520	78016
901120	84368	78624
917504	84944	79456
933888	84480	78608
950272	83840	78000
966656	85552	79136
983040	82336	76672
999424	86608	80528
1015808	90128	82896
1032192	99760	88864
1048576	200464	177280
1081344	200976	177744
1114112	203312	179440
1146880	204624	180608
1179648	210672	184096
1212416	244480	213168
1245184	276016	241232
1277952	376880	342560
1310720	821584	786208
1343488	977456	941616
1376256	630784	594304
1409024	391280	354576
1441792	285952	249616
1474560	290432	253104
1507328	289312	252240
1540096	286032	248384
1572864	290832	253568
1605632	309312	271328
1638400	310592	275072
1671168	311264	274672
1703936	302944	265184
1736704	296528	259888
1769472	280480	244336
1802240	252080	216768
1835008	237536	202480
1867776	225280	192672
1900544	202880	174160
1933312	189984	162496
1966080	177216	150432
1998848	165808	140512
2031616	160736	135472
2064384	147616	122224
2097152	291552	240576
2162688	278672	226976
2228224	278544	228528
2293760	251600	203376
2359296	238208	196064
2424832	224208	190992
2490368	211792	182240
2555904	194480	167248
2621440	191488	165504
2686976	206624	181664
2752512	194528	174496
2818048	166272	147632
2883584	150704	135424
2949120	116192	99328
3014656	107472	91856
3080192	109136	93120
3145728	103408	88256
3211264	105712	89456
3276800	108816	92816
3342336	107136	91136
3407872	111936	96000
3473408	99408	83536
3538944	95264	78912
3604480	78880	64544
3670016	88624	78448
3735552	108064	97920
3801088	117920	107584
3866624	111872	102096
3932160	114896	105456
3997696	117360	107552
4063232	116064	105696
4128768	116624	106976
4194304	233712	213344
4325376	208784	188848
4456448	195936	174864
4587520	187456	166288
4718592	163040	142576
4849664	129488	109648
4980736	75776	65056
5111808	28160	19088
5242880	11264	2464
5373952	15952	7008
5505024	27920	25216
5636096	31392	31168
5767168	33760	33760
5898240	33632	33632
6029312	34960	34960
6160384	37792	37792
6291456	54656	54640
6422528	77776	68672
6553600	93392	72800
6684672	103936	72224
6815744	102896	70816
6946816	113376	81056
7077888	119808	86688
7208960	122848	89920
7340032	118144	84800
7471104	105440	72928
7602176	98704	65744
7733248	107552	73840
7864320	106272	74080
7995392	87568	54992
8126464	74592	42400
8257536	76512	43328
8388608	164528	122992
8650752	158720	156608
8912896	214928	167632
9175040	260816	138496
9437184	325056	109712
9699328	325440	74896
9961472	254864	16784
10223616	126752	3104
10485760	7520	4704
10747904	64032	64032
11010048	473040	471472
11272192	544048	499200
11534336	124144	26688
11796480	170032	17232
12058624	324656	16768
12320768	526192	26448
12582912	1175904	33024
12845056	644048	34704
13107200	450720	32512
13369344	387968	33872
13631488	278416	136688
13893632	1039360	999648
14155776	344992	321072
14417920	38576	16448
14680064	39056	16704
14942208	40112	17248
15204352	40448	17504
15466496	30896	6336
15728640	26960	2880
15990784	30400	3280
16252928	39904	13120
16515072	48848	22624
16777216	74480	47968
17301504	59136	49232
17825792	66192	45328
18350080	71552	18800
18874368	166112	608
19398656	159328	1328
19922944	58032	992
20447232	23344	6768
20971520	132080	120720
21495808	153376	141920
22020096	140192	133152
22544384	18032	848
23068672	60352	944
23592960	87088	864
24117248	194320	15472
24641536	343008	31072
25165824	393808	32832
25690112	300080	23616
26214400	84512	880
26738688	20320	896
27262976	502736	500032
27787264	816	816
28311552	848	848
28835840	1264	1264
29360128	928	928
29884416	1344	1344
30408704	1248	1248
30932992	1328	1328
31457280	1136	1136
31981568	1072	1072
32505856	1184	1184
33030144	1232	1232
33554432	1984	1984
34603008	2016	2016
35651584	3584	3584
36700160	2512	2512
37748736	3008	3008
38797312	2496	2496
39845888	2848	2848
40894464	2464	2464
41943040	3072	3072
42991616	2976	2976
44040192	3120	3120
45088768	3296	3296
46137344	3248	3248
47185920	3648	3648
48234496	3360	3360
49283072	3424	3424
50331648	3744	3744
51380224	3536	3536
52428800	3008	3008
53477376	3440	3440
54525952	3312	3312
55574528	3424	3424
56623104	3920	3920
57671680	3568	3568
58720256	4208	4208
59768832	3472	3472
60817408	4096	4096
61865984	3472	3472
62914560	3648	3648
63963136	3280	3280
65011712	3680	3680
66060288	4272	4272
67108864	6784	6784
69206016	6720	6720
71303168	7168	7168
73400320	7216	7216
75497472	7264	7264
77594624	6912	6912
79691776	6960	6960
81788928	6640	6640
83886080	7472	7472
85983232	6832	6832
88080384	6832	6832
90177536	7200	7200
92274688	6880	6880
94371840	7632	7632
96468992	7632	7632
98566144	7824	7824
100663296	7280	7280
102760448	7104	7104
104857600	7136	7136
106954752	7584	7584
109051904	7520	7520
111149056	7120	7120
113246208	7488	7488
115343360	7392	7392
117440512	7744	7744
119537664	6896	6896
121634816	6864	6864
123731968	7312	7312
125829120	6736	6736
127926272	6896	6896
130023424	7136	7136
132120576	6864	6864
134217728	13920	13920
138412032	13456	13456
142606336	14448	14448
146800640	13472	13472
150994944	14544	14544
155189248	13584	13584
159383552	13888	13888
163577856	15072	15072
167772160	14192	14192
171966464	13712	13712
176160768	14784	14784
180355072	14832	14832
184549376	14000	14000
188743680	13856	13856
192937984	14464	14464
197132288	14160	14160
201326592	13312	13312
205520896	14528	14528
209715200	14080	14080
213909504	14544	14544
218103808	14032	14032
222298112	13200	13200
226492416	11344	11344
230686720	10928	10928
234881024	11328	11328
239075328	10448	10448
243269632	11456	11456
247463936	10224	10224
251658240	9456	9456
255852544	8416	8416
260046848	6992	6992
264241152	8080	8080
268435456	15072	15072
276824064	13440	13440
285212672	14176	14176
293601280	14688	14688
301989888	15216	15216
310378496	14528	14528
318767104	15056	15056
327155712	13664	13664
335544320	14912	14912
343932928	14752	14752
352321536	13712	13712
360710144	13600	13600
369098752	14576	14576
377487360	14976	14976
385875968	13632	13632
394264576	12720	12720
402653184	9216	9216
411041792	6832	6832
419430400	5456	5456
427819008	3648	3648
436207616	0	0
444596224	0	0
452984832	0	0
461373440	0	0
469762048	0	0
478150656	0	0
486539264	0	0
494927872	0	0
503316480	0	0
511705088	0	0
520093696	0	0
528482304	0	0
536870912	0	0
553648128	0	0
570425344	0	0
587202560	0	0
603979776	0	0
620756992	0	0
637534208	0	0
654311424	0	0
671088640	0	0
687865856	0	0
704643072	0	0
721420288	0	0
738197504	0	0
754974720	0	0
771751936	0	0
788529152	0	0
805306368	0	0
822083584	0	0
838860800	0	0
855638016	0	0
872415232	0	0
889192448	0	0
905969664	0	0
922746880	0	0
939524096	0	0
956301312	0	0
973078528	0	0
989855744	0	0
1006632960	0	0
1023410176	0	0
1040187392	0	0
1056964608	0	0
1073741824	0	0
1107296256	0	0
1140850688	0	0
1174405120	0	0
1207959552	0	0
1241513984	0	0
1275068416	0	0
1308622848	0	0
1342177280	0	0
1375731712	0	0
1409286144	0	0
1442840576	0	0
1476395008	0	0
1509949440	0	0
1543503872	0	0
1577058304	0	0
1610612736	0	0
1644167168	0	0
1677721600	0	0
1711276032	0	0
1744830464	0	0
1778384896	0	0
1811939328	0	0
1845493760	0	0
1879048192	0	0
1912602624	0	0
1946157056	0	0
1979711488	0	0
2013265920	0	0
2046820352	0	0
2080374784	0	0
2113929216	0	0
2147483648	0	0
2214592512	0	0
2281701376	0	0
2348810240	0	0
2415919104	0	0
2483027968	0	0
2550136832	0	0
2617245696	0	0
2684354560	0	0
2751463424	0	0
2818572288	0	0
2885681152	0	0
2952790016	0	0
3019898880	0	0
3087007744	0	0
3154116608	0	0
3221225472	0	0
3288334336	0	0
3355443200	0	0
3422552064	0	0
3489660928	0	0
3556769792	0	0
3623878656	0	0
3690987520	0	0
3758096384	0	0
3825205248	0	0
3892314112	0	0
3959422976	0	0
4026531840	0	0
4093640704	0	0
4160749568	0	0
4227858432	0	0
~~~~~~~~~~Reuse Distance Profiler output end~~~~~~~~~~

DRAM Statistics
 CHANNEL 0
 RQ ROW_BUFFER_HIT:     627672  ROW_BUFFER_MISS:   29260198
 DBUS AVG_CONGESTED_CYCLE:    3.96356
 WQ ROW_BUFFER_HIT:     250246  ROW_BUFFER_MISS:    9755959  FULL:          0


CPU 0 Branch Prediction Accuracy: 99.6786% MPKI: 0.215137 Average ROB Occupancy at Mispredict: 309.781
Branch type MPKI
BRANCH_DIRECT_JUMP: 0
BRANCH_INDIRECT: 0
BRANCH_CONDITIONAL: 0.215137
BRANCH_DIRECT_CALL: 0
BRANCH_INDIRECT_CALL: 0
BRANCH_RETURN: 0

