
*** ChampSim Multicore Out-of-Order Simulator ***

Warmup Instructions: 500000000
Simulation Instructions: 1500000000
Number of CPUs: 1
Off-chip DRAM Size: 4 GiB Channels: 1 Width: 64-bit Data Rate: 3200 MT/s

VirtualMemory physical capacity: 8588881920 num_ppages: 2096895
VirtualMemory page size: 4096 log2_page_size: 12

CPU 0 runs traces/657.xz_s-4994B.champsimtrace.xz
CPU 0 Bimodal branch predictor
Basic BTB sets: 1024 ways: 8 indirect buffer size: 4096 RAS size: 64
Initializing LRU.
Initializing LRU.
Initializing LRU.
Initializing LRU.
Initializing rdLRU.
Initializing LRU.
Initializing LRU.
Heartbeat CPU 0 instructions: 10000002 cycles: 2514835 heartbeat IPC: 3.9764 cumulative IPC: 3.9764 (Simulation time: 0 hr 0 min 46 sec) 
Heartbeat CPU 0 instructions: 20000001 cycles: 5028874 heartbeat IPC: 3.97766 cumulative IPC: 3.97703 (Simulation time: 0 hr 1 min 27 sec) 
Heartbeat CPU 0 instructions: 30000003 cycles: 7547202 heartbeat IPC: 3.97089 cumulative IPC: 3.97498 (Simulation time: 0 hr 2 min 12 sec) 
Heartbeat CPU 0 instructions: 40000002 cycles: 10069249 heartbeat IPC: 3.96503 cumulative IPC: 3.97249 (Simulation time: 0 hr 2 min 43 sec) 
Heartbeat CPU 0 instructions: 50000001 cycles: 12584663 heartbeat IPC: 3.97549 cumulative IPC: 3.97309 (Simulation time: 0 hr 3 min 17 sec) 
Heartbeat CPU 0 instructions: 60000002 cycles: 15104973 heartbeat IPC: 3.96777 cumulative IPC: 3.9722 (Simulation time: 0 hr 3 min 56 sec) 
Heartbeat CPU 0 instructions: 70000001 cycles: 17621781 heartbeat IPC: 3.97329 cumulative IPC: 3.97236 (Simulation time: 0 hr 4 min 43 sec) 
Heartbeat CPU 0 instructions: 80000002 cycles: 20139503 heartbeat IPC: 3.97184 cumulative IPC: 3.97229 (Simulation time: 0 hr 5 min 21 sec) 
Heartbeat CPU 0 instructions: 90000000 cycles: 22659199 heartbeat IPC: 3.96873 cumulative IPC: 3.9719 (Simulation time: 0 hr 6 min 5 sec) 
Heartbeat CPU 0 instructions: 100000000 cycles: 25174182 heartbeat IPC: 3.97617 cumulative IPC: 3.97232 (Simulation time: 0 hr 6 min 49 sec) 
Heartbeat CPU 0 instructions: 110000003 cycles: 27690141 heartbeat IPC: 3.97463 cumulative IPC: 3.97253 (Simulation time: 0 hr 7 min 34 sec) 
Heartbeat CPU 0 instructions: 120000000 cycles: 30208864 heartbeat IPC: 3.97026 cumulative IPC: 3.97234 (Simulation time: 0 hr 8 min 21 sec) 
Heartbeat CPU 0 instructions: 130000003 cycles: 32738557 heartbeat IPC: 3.95305 cumulative IPC: 3.97085 (Simulation time: 0 hr 9 min 5 sec) 
Heartbeat CPU 0 instructions: 140000000 cycles: 35253179 heartbeat IPC: 3.97674 cumulative IPC: 3.97127 (Simulation time: 0 hr 9 min 42 sec) 
Heartbeat CPU 0 instructions: 150000000 cycles: 37800018 heartbeat IPC: 3.92644 cumulative IPC: 3.96825 (Simulation time: 0 hr 10 min 22 sec) 
Heartbeat CPU 0 instructions: 160000000 cycles: 40313701 heartbeat IPC: 3.97823 cumulative IPC: 3.96887 (Simulation time: 0 hr 11 min 3 sec) 
Heartbeat CPU 0 instructions: 170000003 cycles: 42851450 heartbeat IPC: 3.9405 cumulative IPC: 3.96719 (Simulation time: 0 hr 11 min 49 sec) 
Heartbeat CPU 0 instructions: 180000001 cycles: 45412251 heartbeat IPC: 3.90503 cumulative IPC: 3.96369 (Simulation time: 0 hr 12 min 31 sec) 
Heartbeat CPU 0 instructions: 190000000 cycles: 47998902 heartbeat IPC: 3.866 cumulative IPC: 3.95842 (Simulation time: 0 hr 13 min 19 sec) 
Heartbeat CPU 0 instructions: 200000000 cycles: 50552604 heartbeat IPC: 3.91588 cumulative IPC: 3.95627 (Simulation time: 0 hr 13 min 55 sec) 
Heartbeat CPU 0 instructions: 210000001 cycles: 53114652 heartbeat IPC: 3.90313 cumulative IPC: 3.95371 (Simulation time: 0 hr 14 min 39 sec) 
Heartbeat CPU 0 instructions: 220000003 cycles: 55643674 heartbeat IPC: 3.9541 cumulative IPC: 3.95373 (Simulation time: 0 hr 15 min 28 sec) 
Heartbeat CPU 0 instructions: 230000002 cycles: 58190676 heartbeat IPC: 3.92618 cumulative IPC: 3.95252 (Simulation time: 0 hr 16 min 14 sec) 
Heartbeat CPU 0 instructions: 240000001 cycles: 60800634 heartbeat IPC: 3.83148 cumulative IPC: 3.94733 (Simulation time: 0 hr 16 min 57 sec) 
Heartbeat CPU 0 instructions: 250000002 cycles: 63376925 heartbeat IPC: 3.88155 cumulative IPC: 3.94465 (Simulation time: 0 hr 17 min 44 sec) 
Heartbeat CPU 0 instructions: 260000003 cycles: 65936652 heartbeat IPC: 3.90667 cumulative IPC: 3.94318 (Simulation time: 0 hr 18 min 29 sec) 
Heartbeat CPU 0 instructions: 270000003 cycles: 68496293 heartbeat IPC: 3.9068 cumulative IPC: 3.94182 (Simulation time: 0 hr 19 min 18 sec) 
Heartbeat CPU 0 instructions: 280000003 cycles: 71056028 heartbeat IPC: 3.90665 cumulative IPC: 3.94055 (Simulation time: 0 hr 20 min 1 sec) 
Heartbeat CPU 0 instructions: 290000000 cycles: 73621606 heartbeat IPC: 3.89776 cumulative IPC: 3.93906 (Simulation time: 0 hr 20 min 49 sec) 
Heartbeat CPU 0 instructions: 300000002 cycles: 76175256 heartbeat IPC: 3.91596 cumulative IPC: 3.93829 (Simulation time: 0 hr 21 min 36 sec) 
Heartbeat CPU 0 instructions: 310000001 cycles: 78710247 heartbeat IPC: 3.94479 cumulative IPC: 3.9385 (Simulation time: 0 hr 22 min 18 sec) 
Heartbeat CPU 0 instructions: 320000000 cycles: 81451503 heartbeat IPC: 3.64796 cumulative IPC: 3.92872 (Simulation time: 0 hr 23 min 13 sec) 
Heartbeat CPU 0 instructions: 330000002 cycles: 84306692 heartbeat IPC: 3.5024 cumulative IPC: 3.91428 (Simulation time: 0 hr 23 min 57 sec) 
Heartbeat CPU 0 instructions: 340000000 cycles: 86961682 heartbeat IPC: 3.76649 cumulative IPC: 3.90977 (Simulation time: 0 hr 24 min 38 sec) 
Heartbeat CPU 0 instructions: 350000000 cycles: 89556644 heartbeat IPC: 3.85362 cumulative IPC: 3.90814 (Simulation time: 0 hr 25 min 19 sec) 
Heartbeat CPU 0 instructions: 360000002 cycles: 92178640 heartbeat IPC: 3.81389 cumulative IPC: 3.90546 (Simulation time: 0 hr 26 min 7 sec) 
Heartbeat CPU 0 instructions: 370000002 cycles: 94796561 heartbeat IPC: 3.81982 cumulative IPC: 3.9031 (Simulation time: 0 hr 26 min 56 sec) 
Heartbeat CPU 0 instructions: 380000003 cycles: 97396325 heartbeat IPC: 3.8465 cumulative IPC: 3.90158 (Simulation time: 0 hr 27 min 34 sec) 
Heartbeat CPU 0 instructions: 390000000 cycles: 100054241 heartbeat IPC: 3.76235 cumulative IPC: 3.89789 (Simulation time: 0 hr 28 min 16 sec) 
Heartbeat CPU 0 instructions: 400000003 cycles: 102700211 heartbeat IPC: 3.77933 cumulative IPC: 3.89483 (Simulation time: 0 hr 28 min 59 sec) 
Heartbeat CPU 0 instructions: 410000001 cycles: 105357282 heartbeat IPC: 3.76354 cumulative IPC: 3.89152 (Simulation time: 0 hr 29 min 49 sec) 
Heartbeat CPU 0 instructions: 420000003 cycles: 108022063 heartbeat IPC: 3.75265 cumulative IPC: 3.88809 (Simulation time: 0 hr 30 min 42 sec) 
Heartbeat CPU 0 instructions: 430000000 cycles: 110671035 heartbeat IPC: 3.77505 cumulative IPC: 3.88539 (Simulation time: 0 hr 31 min 22 sec) 
Heartbeat CPU 0 instructions: 440000003 cycles: 113283974 heartbeat IPC: 3.82711 cumulative IPC: 3.88404 (Simulation time: 0 hr 32 min 8 sec) 
Heartbeat CPU 0 instructions: 450000000 cycles: 115875987 heartbeat IPC: 3.858 cumulative IPC: 3.88346 (Simulation time: 0 hr 32 min 50 sec) 
Heartbeat CPU 0 instructions: 460000003 cycles: 118421144 heartbeat IPC: 3.92903 cumulative IPC: 3.88444 (Simulation time: 0 hr 33 min 32 sec) 
Heartbeat CPU 0 instructions: 470000002 cycles: 120936540 heartbeat IPC: 3.97552 cumulative IPC: 3.88634 (Simulation time: 0 hr 34 min 17 sec) 
Heartbeat CPU 0 instructions: 480000003 cycles: 123449507 heartbeat IPC: 3.97936 cumulative IPC: 3.88823 (Simulation time: 0 hr 35 min 5 sec) 
Heartbeat CPU 0 instructions: 490000000 cycles: 125970152 heartbeat IPC: 3.96724 cumulative IPC: 3.88981 (Simulation time: 0 hr 35 min 47 sec) 
Heartbeat CPU 0 instructions: 500000003 cycles: 128490200 heartbeat IPC: 3.96818 cumulative IPC: 3.89135 (Simulation time: 0 hr 36 min 31 sec) 

Warmup complete CPU 0 instructions: 500000003 cycles: 128490200 (Simulation time: 0 hr 36 min 31 sec) 

Heartbeat CPU 0 instructions: 510000003 cycles: 135488362 heartbeat IPC: 1.42895 cumulative IPC: 1.42895 (Simulation time: 0 hr 37 min 8 sec) 
Heartbeat CPU 0 instructions: 520000000 cycles: 142434524 heartbeat IPC: 1.43964 cumulative IPC: 1.43428 (Simulation time: 0 hr 37 min 48 sec) 
Heartbeat CPU 0 instructions: 530000004 cycles: 149371069 heartbeat IPC: 1.44164 cumulative IPC: 1.43672 (Simulation time: 0 hr 38 min 32 sec) 
Heartbeat CPU 0 instructions: 540000001 cycles: 156335641 heartbeat IPC: 1.43584 cumulative IPC: 1.4365 (Simulation time: 0 hr 39 min 15 sec) 
Heartbeat CPU 0 instructions: 550000000 cycles: 163224595 heartbeat IPC: 1.4516 cumulative IPC: 1.4395 (Simulation time: 0 hr 40 min 0 sec) 
Heartbeat CPU 0 instructions: 560000002 cycles: 170142671 heartbeat IPC: 1.44549 cumulative IPC: 1.44049 (Simulation time: 0 hr 40 min 42 sec) 
Heartbeat CPU 0 instructions: 570000003 cycles: 177069115 heartbeat IPC: 1.44374 cumulative IPC: 1.44095 (Simulation time: 0 hr 41 min 28 sec) 
Heartbeat CPU 0 instructions: 580000001 cycles: 183864777 heartbeat IPC: 1.47153 cumulative IPC: 1.44471 (Simulation time: 0 hr 42 min 7 sec) 
Heartbeat CPU 0 instructions: 590000002 cycles: 191663097 heartbeat IPC: 1.28233 cumulative IPC: 1.42466 (Simulation time: 0 hr 42 min 52 sec) 
Heartbeat CPU 0 instructions: 600000004 cycles: 199904617 heartbeat IPC: 1.21337 cumulative IPC: 1.40028 (Simulation time: 0 hr 43 min 36 sec) 
Heartbeat CPU 0 instructions: 610000004 cycles: 207123288 heartbeat IPC: 1.3853 cumulative IPC: 1.3989 (Simulation time: 0 hr 44 min 16 sec) 
Heartbeat CPU 0 instructions: 620000000 cycles: 216026038 heartbeat IPC: 1.12325 cumulative IPC: 1.37087 (Simulation time: 0 hr 45 min 6 sec) 
Heartbeat CPU 0 instructions: 630000003 cycles: 224809775 heartbeat IPC: 1.13847 cumulative IPC: 1.34967 (Simulation time: 0 hr 45 min 57 sec) 
Heartbeat CPU 0 instructions: 640000000 cycles: 234131245 heartbeat IPC: 1.07279 cumulative IPC: 1.32524 (Simulation time: 0 hr 46 min 57 sec) 
Heartbeat CPU 0 instructions: 650000001 cycles: 242912157 heartbeat IPC: 1.13883 cumulative IPC: 1.31094 (Simulation time: 0 hr 47 min 53 sec) 
Heartbeat CPU 0 instructions: 660000002 cycles: 251007701 heartbeat IPC: 1.23525 cumulative IPC: 1.30594 (Simulation time: 0 hr 48 min 43 sec) 
Heartbeat CPU 0 instructions: 670000002 cycles: 258692077 heartbeat IPC: 1.30134 cumulative IPC: 1.30566 (Simulation time: 0 hr 49 min 21 sec) 
Heartbeat CPU 0 instructions: 680000001 cycles: 267924356 heartbeat IPC: 1.08316 cumulative IPC: 1.29093 (Simulation time: 0 hr 50 min 36 sec) 
Heartbeat CPU 0 instructions: 690000001 cycles: 276235185 heartbeat IPC: 1.20325 cumulative IPC: 1.286 (Simulation time: 0 hr 51 min 35 sec) 
Heartbeat CPU 0 instructions: 700000002 cycles: 284815311 heartbeat IPC: 1.16548 cumulative IPC: 1.27938 (Simulation time: 0 hr 52 min 31 sec) 
Heartbeat CPU 0 instructions: 710000001 cycles: 293781658 heartbeat IPC: 1.11528 cumulative IPC: 1.27048 (Simulation time: 0 hr 53 min 30 sec) 
Heartbeat CPU 0 instructions: 720000000 cycles: 302755804 heartbeat IPC: 1.11431 cumulative IPC: 1.26244 (Simulation time: 0 hr 54 min 21 sec) 
Heartbeat CPU 0 instructions: 730000000 cycles: 311675038 heartbeat IPC: 1.12117 cumulative IPC: 1.25556 (Simulation time: 0 hr 55 min 11 sec) 
Heartbeat CPU 0 instructions: 740000000 cycles: 320495838 heartbeat IPC: 1.13368 cumulative IPC: 1.24996 (Simulation time: 0 hr 55 min 51 sec) 
Heartbeat CPU 0 instructions: 750000001 cycles: 328109981 heartbeat IPC: 1.31335 cumulative IPC: 1.25238 (Simulation time: 0 hr 56 min 47 sec) 
Heartbeat CPU 0 instructions: 760000003 cycles: 339576117 heartbeat IPC: 0.872134 cumulative IPC: 1.23173 (Simulation time: 0 hr 58 min 23 sec) 
Heartbeat CPU 0 instructions: 770000004 cycles: 354955743 heartbeat IPC: 0.650211 cumulative IPC: 1.19223 (Simulation time: 1 hr 0 min 45 sec) 
Heartbeat CPU 0 instructions: 780000004 cycles: 368294375 heartbeat IPC: 0.749702 cumulative IPC: 1.16762 (Simulation time: 1 hr 2 min 7 sec) 
Heartbeat CPU 0 instructions: 790000000 cycles: 375598900 heartbeat IPC: 1.36901 cumulative IPC: 1.17357 (Simulation time: 1 hr 2 min 59 sec) 
Heartbeat CPU 0 instructions: 800000002 cycles: 386175895 heartbeat IPC: 0.945448 cumulative IPC: 1.16421 (Simulation time: 1 hr 4 min 11 sec) 
Heartbeat CPU 0 instructions: 810000003 cycles: 396614645 heartbeat IPC: 0.957969 cumulative IPC: 1.15618 (Simulation time: 1 hr 5 min 30 sec) 
Heartbeat CPU 0 instructions: 820000000 cycles: 406714806 heartbeat IPC: 0.990083 cumulative IPC: 1.15015 (Simulation time: 1 hr 6 min 48 sec) 
Heartbeat CPU 0 instructions: 830000000 cycles: 416668790 heartbeat IPC: 1.00462 cumulative IPC: 1.14512 (Simulation time: 1 hr 8 min 2 sec) 
Heartbeat CPU 0 instructions: 840000002 cycles: 427334991 heartbeat IPC: 0.937541 cumulative IPC: 1.13771 (Simulation time: 1 hr 9 min 23 sec) 
Heartbeat CPU 0 instructions: 850000001 cycles: 439203890 heartbeat IPC: 0.842538 cumulative IPC: 1.12644 (Simulation time: 1 hr 10 min 35 sec) 
Heartbeat CPU 0 instructions: 860000000 cycles: 449976148 heartbeat IPC: 0.92831 cumulative IPC: 1.1198 (Simulation time: 1 hr 11 min 52 sec) 
Heartbeat CPU 0 instructions: 870000000 cycles: 461380467 heartbeat IPC: 0.876861 cumulative IPC: 1.11148 (Simulation time: 1 hr 12 min 50 sec) 
Heartbeat CPU 0 instructions: 880000001 cycles: 472306371 heartbeat IPC: 0.915256 cumulative IPC: 1.10524 (Simulation time: 1 hr 14 min 15 sec) 
Heartbeat CPU 0 instructions: 890000004 cycles: 479536962 heartbeat IPC: 1.38301 cumulative IPC: 1.11096 (Simulation time: 1 hr 15 min 6 sec) 
Heartbeat CPU 0 instructions: 900000001 cycles: 489370390 heartbeat IPC: 1.01694 cumulative IPC: 1.1084 (Simulation time: 1 hr 16 min 20 sec) 
Heartbeat CPU 0 instructions: 910000003 cycles: 496268258 heartbeat IPC: 1.44972 cumulative IPC: 1.1148 (Simulation time: 1 hr 17 min 5 sec) 
Heartbeat CPU 0 instructions: 920000002 cycles: 502988305 heartbeat IPC: 1.48808 cumulative IPC: 1.1215 (Simulation time: 1 hr 17 min 40 sec) 
Heartbeat CPU 0 instructions: 930000003 cycles: 509918412 heartbeat IPC: 1.44298 cumulative IPC: 1.12734 (Simulation time: 1 hr 18 min 16 sec) 
Heartbeat CPU 0 instructions: 940000001 cycles: 516850258 heartbeat IPC: 1.44262 cumulative IPC: 1.13297 (Simulation time: 1 hr 19 min 1 sec) 
Heartbeat CPU 0 instructions: 950000000 cycles: 523902665 heartbeat IPC: 1.41796 cumulative IPC: 1.13805 (Simulation time: 1 hr 19 min 43 sec) 
Heartbeat CPU 0 instructions: 960000000 cycles: 530780439 heartbeat IPC: 1.45396 cumulative IPC: 1.14345 (Simulation time: 1 hr 20 min 30 sec) 
Heartbeat CPU 0 instructions: 970000002 cycles: 537740528 heartbeat IPC: 1.43676 cumulative IPC: 1.14844 (Simulation time: 1 hr 21 min 6 sec) 
Heartbeat CPU 0 instructions: 980000000 cycles: 544772248 heartbeat IPC: 1.42213 cumulative IPC: 1.15306 (Simulation time: 1 hr 21 min 54 sec) 
Heartbeat CPU 0 instructions: 990000000 cycles: 551698417 heartbeat IPC: 1.4438 cumulative IPC: 1.15782 (Simulation time: 1 hr 22 min 38 sec) 
Heartbeat CPU 0 instructions: 1000000004 cycles: 558627502 heartbeat IPC: 1.44319 cumulative IPC: 1.16242 (Simulation time: 1 hr 23 min 26 sec) 
Heartbeat CPU 0 instructions: 1010000004 cycles: 565504558 heartbeat IPC: 1.45411 cumulative IPC: 1.16701 (Simulation time: 1 hr 24 min 11 sec) 
Heartbeat CPU 0 instructions: 1020000000 cycles: 572314440 heartbeat IPC: 1.46845 cumulative IPC: 1.17163 (Simulation time: 1 hr 24 min 51 sec) 
Heartbeat CPU 0 instructions: 1030000004 cycles: 579701043 heartbeat IPC: 1.3538 cumulative IPC: 1.17462 (Simulation time: 1 hr 25 min 42 sec) 
Heartbeat CPU 0 instructions: 1040000000 cycles: 588513767 heartbeat IPC: 1.13472 cumulative IPC: 1.17385 (Simulation time: 1 hr 26 min 49 sec) 
Heartbeat CPU 0 instructions: 1050000001 cycles: 595092334 heartbeat IPC: 1.52009 cumulative IPC: 1.17873 (Simulation time: 1 hr 27 min 28 sec) 
Heartbeat CPU 0 instructions: 1060000004 cycles: 603894231 heartbeat IPC: 1.13612 cumulative IPC: 1.17795 (Simulation time: 1 hr 28 min 26 sec) 
Heartbeat CPU 0 instructions: 1070000001 cycles: 612754509 heartbeat IPC: 1.12863 cumulative IPC: 1.17704 (Simulation time: 1 hr 29 min 23 sec) 
Heartbeat CPU 0 instructions: 1080000000 cycles: 621986202 heartbeat IPC: 1.08322 cumulative IPC: 1.17529 (Simulation time: 1 hr 30 min 27 sec) 
Heartbeat CPU 0 instructions: 1090000003 cycles: 630705270 heartbeat IPC: 1.14691 cumulative IPC: 1.1748 (Simulation time: 1 hr 31 min 20 sec) 
Heartbeat CPU 0 instructions: 1100000002 cycles: 639206126 heartbeat IPC: 1.17635 cumulative IPC: 1.17482 (Simulation time: 1 hr 32 min 17 sec) 
Heartbeat CPU 0 instructions: 1110000000 cycles: 646687637 heartbeat IPC: 1.33663 cumulative IPC: 1.17716 (Simulation time: 1 hr 33 min 8 sec) 
Heartbeat CPU 0 instructions: 1120000000 cycles: 654986021 heartbeat IPC: 1.20505 cumulative IPC: 1.1776 (Simulation time: 1 hr 34 min 6 sec) 
Heartbeat CPU 0 instructions: 1130000000 cycles: 664109496 heartbeat IPC: 1.09607 cumulative IPC: 1.17621 (Simulation time: 1 hr 35 min 20 sec) 
Heartbeat CPU 0 instructions: 1140000001 cycles: 672487167 heartbeat IPC: 1.19365 cumulative IPC: 1.17648 (Simulation time: 1 hr 36 min 18 sec) 
Heartbeat CPU 0 instructions: 1150000000 cycles: 681635545 heartbeat IPC: 1.09309 cumulative IPC: 1.1751 (Simulation time: 1 hr 37 min 20 sec) 
Heartbeat CPU 0 instructions: 1160000002 cycles: 690534667 heartbeat IPC: 1.12371 cumulative IPC: 1.17428 (Simulation time: 1 hr 38 min 20 sec) 
Heartbeat CPU 0 instructions: 1170000000 cycles: 699403809 heartbeat IPC: 1.1275 cumulative IPC: 1.17356 (Simulation time: 1 hr 39 min 12 sec) 
Heartbeat CPU 0 instructions: 1180000000 cycles: 708340195 heartbeat IPC: 1.11902 cumulative IPC: 1.17272 (Simulation time: 1 hr 40 min 7 sec) 
Heartbeat CPU 0 instructions: 1190000000 cycles: 716621723 heartbeat IPC: 1.20751 cumulative IPC: 1.17321 (Simulation time: 1 hr 40 min 55 sec) 
Heartbeat CPU 0 instructions: 1200000002 cycles: 725889038 heartbeat IPC: 1.07906 cumulative IPC: 1.17175 (Simulation time: 1 hr 41 min 57 sec) 
Heartbeat CPU 0 instructions: 1210000000 cycles: 739436217 heartbeat IPC: 0.738161 cumulative IPC: 1.16213 (Simulation time: 1 hr 43 min 54 sec) 
Heartbeat CPU 0 instructions: 1220000001 cycles: 755276588 heartbeat IPC: 0.631298 cumulative IPC: 1.14872 (Simulation time: 1 hr 46 min 10 sec) 
Heartbeat CPU 0 instructions: 1230000002 cycles: 763648051 heartbeat IPC: 1.19453 cumulative IPC: 1.14932 (Simulation time: 1 hr 47 min 13 sec) 
Heartbeat CPU 0 instructions: 1240000000 cycles: 773732848 heartbeat IPC: 0.991591 cumulative IPC: 1.14686 (Simulation time: 1 hr 48 min 19 sec) 
Heartbeat CPU 0 instructions: 1250000004 cycles: 784013607 heartbeat IPC: 0.972691 cumulative IPC: 1.14412 (Simulation time: 1 hr 49 min 40 sec) 
Heartbeat CPU 0 instructions: 1260000000 cycles: 794424473 heartbeat IPC: 0.960535 cumulative IPC: 1.14125 (Simulation time: 1 hr 51 min 4 sec) 
Heartbeat CPU 0 instructions: 1270000000 cycles: 804009572 heartbeat IPC: 1.04329 cumulative IPC: 1.13986 (Simulation time: 1 hr 52 min 14 sec) 
Heartbeat CPU 0 instructions: 1280000003 cycles: 814551969 heartbeat IPC: 0.948551 cumulative IPC: 1.13692 (Simulation time: 1 hr 53 min 28 sec) 
Heartbeat CPU 0 instructions: 1290000000 cycles: 826417036 heartbeat IPC: 0.84281 cumulative IPC: 1.13192 (Simulation time: 1 hr 55 min 12 sec) 
Heartbeat CPU 0 instructions: 1300000000 cycles: 836878150 heartbeat IPC: 0.955921 cumulative IPC: 1.12932 (Simulation time: 1 hr 56 min 19 sec) 
Heartbeat CPU 0 instructions: 1310000002 cycles: 848404076 heartbeat IPC: 0.867609 cumulative IPC: 1.12513 (Simulation time: 1 hr 57 min 45 sec) 
Heartbeat CPU 0 instructions: 1320000003 cycles: 859861893 heartbeat IPC: 0.872767 cumulative IPC: 1.12118 (Simulation time: 1 hr 59 min 0 sec) 
Heartbeat CPU 0 instructions: 1330000002 cycles: 867427046 heartbeat IPC: 1.32185 cumulative IPC: 1.12324 (Simulation time: 1 hr 59 min 51 sec) 
Heartbeat CPU 0 instructions: 1340000004 cycles: 877232511 heartbeat IPC: 1.01984 cumulative IPC: 1.12188 (Simulation time: 2 hr 1 min 1 sec) 
Heartbeat CPU 0 instructions: 1350000000 cycles: 884766057 heartbeat IPC: 1.3274 cumulative IPC: 1.12393 (Simulation time: 2 hr 1 min 50 sec) 
Heartbeat CPU 0 instructions: 1360000002 cycles: 891552142 heartbeat IPC: 1.4736 cumulative IPC: 1.12704 (Simulation time: 2 hr 2 min 33 sec) 
Heartbeat CPU 0 instructions: 1370000002 cycles: 898366831 heartbeat IPC: 1.46742 cumulative IPC: 1.13005 (Simulation time: 2 hr 3 min 12 sec) 
Heartbeat CPU 0 instructions: 1380000003 cycles: 905294640 heartbeat IPC: 1.44346 cumulative IPC: 1.13285 (Simulation time: 2 hr 3 min 54 sec) 
Heartbeat CPU 0 instructions: 1390000001 cycles: 912282856 heartbeat IPC: 1.43098 cumulative IPC: 1.1355 (Simulation time: 2 hr 4 min 34 sec) 
Heartbeat CPU 0 instructions: 1400000001 cycles: 919263291 heartbeat IPC: 1.43258 cumulative IPC: 1.13813 (Simulation time: 2 hr 5 min 17 sec) 
Heartbeat CPU 0 instructions: 1410000004 cycles: 926160822 heartbeat IPC: 1.44979 cumulative IPC: 1.14082 (Simulation time: 2 hr 6 min 4 sec) 
Heartbeat CPU 0 instructions: 1420000003 cycles: 933201136 heartbeat IPC: 1.42039 cumulative IPC: 1.14327 (Simulation time: 2 hr 6 min 50 sec) 
Heartbeat CPU 0 instructions: 1430000000 cycles: 940161148 heartbeat IPC: 1.43678 cumulative IPC: 1.14578 (Simulation time: 2 hr 7 min 40 sec) 
Heartbeat CPU 0 instructions: 1440000002 cycles: 946984802 heartbeat IPC: 1.46549 cumulative IPC: 1.14845 (Simulation time: 2 hr 8 min 22 sec) 
Heartbeat CPU 0 instructions: 1450000000 cycles: 953922833 heartbeat IPC: 1.44133 cumulative IPC: 1.15091 (Simulation time: 2 hr 9 min 8 sec) 
Heartbeat CPU 0 instructions: 1460000000 cycles: 960798407 heartbeat IPC: 1.45442 cumulative IPC: 1.15342 (Simulation time: 2 hr 9 min 51 sec) 
Heartbeat CPU 0 instructions: 1470000000 cycles: 967746183 heartbeat IPC: 1.43931 cumulative IPC: 1.15579 (Simulation time: 2 hr 10 min 33 sec) 
Heartbeat CPU 0 instructions: 1480000004 cycles: 975352495 heartbeat IPC: 1.3147 cumulative IPC: 1.15721 (Simulation time: 2 hr 11 min 23 sec) 
Heartbeat CPU 0 instructions: 1490000000 cycles: 983586502 heartbeat IPC: 1.21448 cumulative IPC: 1.15776 (Simulation time: 2 hr 12 min 27 sec) 
Heartbeat CPU 0 instructions: 1500000000 cycles: 991704234 heartbeat IPC: 1.23187 cumulative IPC: 1.15846 (Simulation time: 2 hr 13 min 22 sec) 
Heartbeat CPU 0 instructions: 1510000004 cycles: 1000560084 heartbeat IPC: 1.1292 cumulative IPC: 1.15816 (Simulation time: 2 hr 14 min 26 sec) 
Heartbeat CPU 0 instructions: 1520000001 cycles: 1009881095 heartbeat IPC: 1.07284 cumulative IPC: 1.15726 (Simulation time: 2 hr 15 min 25 sec) 
Heartbeat CPU 0 instructions: 1530000000 cycles: 1018527807 heartbeat IPC: 1.15651 cumulative IPC: 1.15725 (Simulation time: 2 hr 16 min 22 sec) 
Heartbeat CPU 0 instructions: 1540000002 cycles: 1027400037 heartbeat IPC: 1.12711 cumulative IPC: 1.15696 (Simulation time: 2 hr 17 min 17 sec) 
Heartbeat CPU 0 instructions: 1550000001 cycles: 1034873832 heartbeat IPC: 1.33801 cumulative IPC: 1.15845 (Simulation time: 2 hr 18 min 6 sec) 
Heartbeat CPU 0 instructions: 1560000000 cycles: 1042909068 heartbeat IPC: 1.24452 cumulative IPC: 1.15921 (Simulation time: 2 hr 19 min 2 sec) 
Heartbeat CPU 0 instructions: 1570000002 cycles: 1052248107 heartbeat IPC: 1.07077 cumulative IPC: 1.15831 (Simulation time: 2 hr 20 min 14 sec) 
Heartbeat CPU 0 instructions: 1580000003 cycles: 1060354965 heartbeat IPC: 1.23352 cumulative IPC: 1.15897 (Simulation time: 2 hr 21 min 11 sec) 
Heartbeat CPU 0 instructions: 1590000004 cycles: 1069409738 heartbeat IPC: 1.10439 cumulative IPC: 1.15844 (Simulation time: 2 hr 22 min 16 sec) 
Heartbeat CPU 0 instructions: 1600000003 cycles: 1078350479 heartbeat IPC: 1.11848 cumulative IPC: 1.15807 (Simulation time: 2 hr 23 min 13 sec) 
Heartbeat CPU 0 instructions: 1610000000 cycles: 1087369499 heartbeat IPC: 1.10877 cumulative IPC: 1.1576 (Simulation time: 2 hr 24 min 11 sec) 
Heartbeat CPU 0 instructions: 1620000000 cycles: 1096399940 heartbeat IPC: 1.10737 cumulative IPC: 1.15713 (Simulation time: 2 hr 25 min 3 sec) 
Heartbeat CPU 0 instructions: 1630000003 cycles: 1105489434 heartbeat IPC: 1.10017 cumulative IPC: 1.1566 (Simulation time: 2 hr 26 min 9 sec) 
Heartbeat CPU 0 instructions: 1640000001 cycles: 1112304980 heartbeat IPC: 1.46723 cumulative IPC: 1.15875 (Simulation time: 2 hr 26 min 50 sec) 
Heartbeat CPU 0 instructions: 1650000001 cycles: 1125849572 heartbeat IPC: 0.738302 cumulative IPC: 1.15304 (Simulation time: 2 hr 28 min 34 sec) 
Heartbeat CPU 0 instructions: 1660000001 cycles: 1142258746 heartbeat IPC: 0.609415 cumulative IPC: 1.14425 (Simulation time: 2 hr 30 min 38 sec) 
Heartbeat CPU 0 instructions: 1670000002 cycles: 1152436834 heartbeat IPC: 0.982503 cumulative IPC: 1.14264 (Simulation time: 2 hr 31 min 32 sec) 
Heartbeat CPU 0 instructions: 1680000001 cycles: 1161522904 heartbeat IPC: 1.10059 cumulative IPC: 1.14227 (Simulation time: 2 hr 32 min 15 sec) 
Heartbeat CPU 0 instructions: 1690000001 cycles: 1172032034 heartbeat IPC: 0.951554 cumulative IPC: 1.14035 (Simulation time: 2 hr 33 min 33 sec) 
Heartbeat CPU 0 instructions: 1700000000 cycles: 1182057692 heartbeat IPC: 0.997441 cumulative IPC: 1.13899 (Simulation time: 2 hr 34 min 17 sec) 
Heartbeat CPU 0 instructions: 1710000001 cycles: 1191706000 heartbeat IPC: 1.03645 cumulative IPC: 1.13806 (Simulation time: 2 hr 34 min 59 sec) 
Heartbeat CPU 0 instructions: 1720000001 cycles: 1202648989 heartbeat IPC: 0.913827 cumulative IPC: 1.13577 (Simulation time: 2 hr 35 min 50 sec) 
Heartbeat CPU 0 instructions: 1730000003 cycles: 1213602464 heartbeat IPC: 0.912952 cumulative IPC: 1.13352 (Simulation time: 2 hr 36 min 39 sec) 
Heartbeat CPU 0 instructions: 1740000002 cycles: 1224839750 heartbeat IPC: 0.889894 cumulative IPC: 1.13103 (Simulation time: 2 hr 37 min 30 sec) 
Heartbeat CPU 0 instructions: 1750000002 cycles: 1236008866 heartbeat IPC: 0.895326 cumulative IPC: 1.12865 (Simulation time: 2 hr 38 min 21 sec) 
Heartbeat CPU 0 instructions: 1760000000 cycles: 1246981714 heartbeat IPC: 0.91134 cumulative IPC: 1.12652 (Simulation time: 2 hr 39 min 10 sec) 
Heartbeat CPU 0 instructions: 1770000001 cycles: 1256233910 heartbeat IPC: 1.08082 cumulative IPC: 1.12614 (Simulation time: 2 hr 40 min 26 sec) 
Heartbeat CPU 0 instructions: 1780000000 cycles: 1265366759 heartbeat IPC: 1.09495 cumulative IPC: 1.12589 (Simulation time: 2 hr 41 min 40 sec) 
Heartbeat CPU 0 instructions: 1790000003 cycles: 1273591148 heartbeat IPC: 1.2159 cumulative IPC: 1.12654 (Simulation time: 2 hr 42 min 36 sec) 
Heartbeat CPU 0 instructions: 1800000000 cycles: 1280266566 heartbeat IPC: 1.49803 cumulative IPC: 1.12869 (Simulation time: 2 hr 43 min 22 sec) 
Heartbeat CPU 0 instructions: 1810000001 cycles: 1287068193 heartbeat IPC: 1.47024 cumulative IPC: 1.1307 (Simulation time: 2 hr 44 min 8 sec) 
Heartbeat CPU 0 instructions: 1820000000 cycles: 1294069533 heartbeat IPC: 1.4283 cumulative IPC: 1.13248 (Simulation time: 2 hr 44 min 56 sec) 
Heartbeat CPU 0 instructions: 1830000003 cycles: 1300982300 heartbeat IPC: 1.4466 cumulative IPC: 1.13434 (Simulation time: 2 hr 45 min 24 sec) 
Heartbeat CPU 0 instructions: 1840000000 cycles: 1308025434 heartbeat IPC: 1.41982 cumulative IPC: 1.13604 (Simulation time: 2 hr 45 min 50 sec) 
Heartbeat CPU 0 instructions: 1850000002 cycles: 1314957026 heartbeat IPC: 1.44267 cumulative IPC: 1.13783 (Simulation time: 2 hr 46 min 17 sec) 
Heartbeat CPU 0 instructions: 1860000000 cycles: 1321936668 heartbeat IPC: 1.43274 cumulative IPC: 1.13956 (Simulation time: 2 hr 46 min 43 sec) 
Heartbeat CPU 0 instructions: 1870000002 cycles: 1328809699 heartbeat IPC: 1.45496 cumulative IPC: 1.14136 (Simulation time: 2 hr 47 min 8 sec) 
Heartbeat CPU 0 instructions: 1880000004 cycles: 1335792114 heartbeat IPC: 1.43217 cumulative IPC: 1.14304 (Simulation time: 2 hr 47 min 35 sec) 
Heartbeat CPU 0 instructions: 1890000002 cycles: 1342706949 heartbeat IPC: 1.44617 cumulative IPC: 1.14477 (Simulation time: 2 hr 48 min 1 sec) 
Heartbeat CPU 0 instructions: 1900000003 cycles: 1349533112 heartbeat IPC: 1.46495 cumulative IPC: 1.14656 (Simulation time: 2 hr 48 min 26 sec) 
Heartbeat CPU 0 instructions: 1910000003 cycles: 1356465342 heartbeat IPC: 1.44254 cumulative IPC: 1.14823 (Simulation time: 2 hr 48 min 52 sec) 
Heartbeat CPU 0 instructions: 1920000002 cycles: 1364171886 heartbeat IPC: 1.2976 cumulative IPC: 1.14916 (Simulation time: 2 hr 49 min 22 sec) 
Heartbeat CPU 0 instructions: 1930000004 cycles: 1372487718 heartbeat IPC: 1.20253 cumulative IPC: 1.14952 (Simulation time: 2 hr 49 min 56 sec) 
Heartbeat CPU 0 instructions: 1940000001 cycles: 1379880614 heartbeat IPC: 1.35265 cumulative IPC: 1.15072 (Simulation time: 2 hr 50 min 24 sec) 
Heartbeat CPU 0 instructions: 1950000000 cycles: 1388771360 heartbeat IPC: 1.12476 cumulative IPC: 1.15054 (Simulation time: 2 hr 50 min 59 sec) 
Heartbeat CPU 0 instructions: 1960000001 cycles: 1397541685 heartbeat IPC: 1.14021 cumulative IPC: 1.15047 (Simulation time: 2 hr 51 min 33 sec) 
Heartbeat CPU 0 instructions: 1970000000 cycles: 1406775560 heartbeat IPC: 1.08297 cumulative IPC: 1.14998 (Simulation time: 2 hr 52 min 11 sec) 
Heartbeat CPU 0 instructions: 1980000001 cycles: 1415617483 heartbeat IPC: 1.13098 cumulative IPC: 1.14985 (Simulation time: 2 hr 52 min 45 sec) 
Heartbeat CPU 0 instructions: 1990000003 cycles: 1423512849 heartbeat IPC: 1.26657 cumulative IPC: 1.15056 (Simulation time: 2 hr 53 min 16 sec) 
*** Reached end of trace: traces/657.xz_s-4994B.champsimtrace.xz
Heartbeat CPU 0 instructions: 2000000002 cycles: 1431240697 heartbeat IPC: 1.29402 cumulative IPC: 1.15141 (Simulation time: 2 hr 53 min 47 sec) 
Finished CPU 0 instructions: 1500000002 cycles: 1302750504 cumulative IPC: 1.15141 (Simulation time: 2 hr 53 min 47 sec) 

ChampSim completed all CPUs

Region of Interest Statistics

CPU 0 cumulative IPC: 1.15141 instructions: 1500000002 cycles: 1302750504
cpu0_DTLB TOTAL     ACCESS:  186399648  HIT:  186210358  MISS:     189290
cpu0_DTLB LOAD      ACCESS:  116765691  HIT:  116596166  MISS:     169525
cpu0_DTLB RFO       ACCESS:   69633957  HIT:   69614192  MISS:      19765
cpu0_DTLB PREFETCH  ACCESS:          0  HIT:          0  MISS:          0
cpu0_DTLB WRITEBACK ACCESS:          0  HIT:          0  MISS:          0
cpu0_DTLB TRANSLATION ACCESS:          0  HIT:          0  MISS:          0
cpu0_DTLB PREFETCH  REQUESTED:          0  ISSUED:          0  USEFUL:          0  USELESS:          0
cpu0_DTLB AVERAGE MISS LATENCY: 18.3093 cycles
cpu0_ITLB TOTAL     ACCESS:  119766993  HIT:  119766993  MISS:          0
cpu0_ITLB LOAD      ACCESS:  119766993  HIT:  119766993  MISS:          0
cpu0_ITLB RFO       ACCESS:          0  HIT:          0  MISS:          0
cpu0_ITLB PREFETCH  ACCESS:          0  HIT:          0  MISS:          0
cpu0_ITLB WRITEBACK ACCESS:          0  HIT:          0  MISS:          0
cpu0_ITLB TRANSLATION ACCESS:          0  HIT:          0  MISS:          0
cpu0_ITLB PREFETCH  REQUESTED:          0  ISSUED:          0  USEFUL:          0  USELESS:          0
cpu0_ITLB AVERAGE MISS LATENCY: -nan cycles
cpu0_L1I TOTAL     ACCESS:   73327954  HIT:   73326324  MISS:       1630
cpu0_L1I LOAD      ACCESS:   73327954  HIT:   73326324  MISS:       1630
cpu0_L1I RFO       ACCESS:          0  HIT:          0  MISS:          0
cpu0_L1I PREFETCH  ACCESS:          0  HIT:          0  MISS:          0
cpu0_L1I WRITEBACK ACCESS:          0  HIT:          0  MISS:          0
cpu0_L1I TRANSLATION ACCESS:          0  HIT:          0  MISS:          0
cpu0_L1I PREFETCH  REQUESTED:          0  ISSUED:          0  USEFUL:          0  USELESS:          0
cpu0_L1I AVERAGE MISS LATENCY: 66.0908 cycles
cpu0_STLB TOTAL     ACCESS:     189290  HIT:     178164  MISS:      11126
cpu0_STLB LOAD      ACCESS:     169525  HIT:     167891  MISS:       1634
cpu0_STLB RFO       ACCESS:      19765  HIT:      10273  MISS:       9492
cpu0_STLB PREFETCH  ACCESS:          0  HIT:          0  MISS:          0
cpu0_STLB WRITEBACK ACCESS:          0  HIT:          0  MISS:          0
cpu0_STLB TRANSLATION ACCESS:          0  HIT:          0  MISS:          0
cpu0_STLB PREFETCH  REQUESTED:          0  ISSUED:          0  USEFUL:          0  USELESS:          0
cpu0_STLB AVERAGE MISS LATENCY: 158.363 cycles
cpu0_L1D TOTAL     ACCESS:  236502089  HIT:  234473345  MISS:    2028744
cpu0_L1D LOAD      ACCESS:  138943752  HIT:  137940069  MISS:    1003683
cpu0_L1D RFO       ACCESS:   97547212  HIT:   96525640  MISS:    1021572
cpu0_L1D PREFETCH  ACCESS:          0  HIT:          0  MISS:          0
cpu0_L1D WRITEBACK ACCESS:          0  HIT:          0  MISS:          0
cpu0_L1D TRANSLATION ACCESS:      11125  HIT:       7636  MISS:       3489
cpu0_L1D PREFETCH  REQUESTED:          0  ISSUED:          0  USEFUL:          0  USELESS:          0
cpu0_L1D AVERAGE MISS LATENCY: 132.728 cycles
cpu0_L2C TOTAL     ACCESS:    3184511  HIT:    1907800  MISS:    1276711
cpu0_L2C LOAD      ACCESS:    1005310  HIT:     614004  MISS:     391306
cpu0_L2C RFO       ACCESS:    1021570  HIT:     143367  MISS:     878203
cpu0_L2C PREFETCH  ACCESS:          0  HIT:          0  MISS:          0
cpu0_L2C WRITEBACK ACCESS:    1154142  HIT:    1147020  MISS:       7122
cpu0_L2C TRANSLATION ACCESS:       3489  HIT:       3409  MISS:         80
cpu0_L2C PREFETCH  REQUESTED:          0  ISSUED:          0  USEFUL:          0  USELESS:          0
cpu0_L2C AVERAGE MISS LATENCY: 193.497 cycles
LLC TOTAL     ACCESS:    2177877  HIT:    1042866  MISS:    1135011
LLC LOAD      ACCESS:     391306  HIT:     128779  MISS:     262527
LLC RFO       ACCESS:     878203  HIT:      11590  MISS:     866613
LLC PREFETCH  ACCESS:          0  HIT:          0  MISS:          0
LLC WRITEBACK ACCESS:     908288  HIT:     902453  MISS:       5835
LLC TRANSLATION ACCESS:         80  HIT:         44  MISS:         36
LLC PREFETCH  REQUESTED:          0  ISSUED:          0  USEFUL:          0  USELESS:          0
LLC AVERAGE MISS LATENCY: 194.164 cycles
~~~~~~~~~~Reuse Distance Profiler output~~~~~~~~~~
0	47286256	15374784
1	51541232	22229152
2	25093872	12558112
3	18941728	9354320
4	23431936	15937920
5	8882688	3792736
6	8925008	2086432
7	5963376	2863568
8	5882608	2748864
9	4550960	2511008
10	2331568	772176
11	2040944	740000
12	1714512	1182864
13	1181216	616000
14	2276832	1684432
15	857136	426272
16	625424	225008
17	586352	189872
18	462624	183008
19	1523856	1238144
20	709888	246272
21	922880	368448
22	767136	459584
23	536272	404688
24	1443728	1322144
25	450048	326160
26	520176	395888
27	574368	461024
28	804432	693072
29	1708592	1576512
30	976960	753232
31	1044240	729648
32	1057120	746416
33	1355200	911888
34	2106144	1777440
35	1550048	1043536
36	1477920	1045376
37	1698816	1046304
38	1790768	672160
39	2565264	1460944
40	958240	513376
41	778432	497760
42	722288	521664
43	706512	544160
44	1614528	1485312
45	659920	553888
46	622432	526336
47	672784	582048
48	480640	392896
49	1256208	1175312
50	368800	288432
51	319392	230512
52	314880	220080
53	278688	196016
54	1073648	996928
55	237152	169952
56	221504	159904
57	190704	142656
58	194384	153168
59	967968	936752
60	166480	136976
61	157568	131552
62	153760	127952
63	169440	141344
64	1094000	1031952
66	327616	259792
68	1099168	1044816
70	332352	299616
72	357520	333584
74	1150624	1118688
76	452272	404608
78	1195344	1130432
80	549680	472736
82	561648	487200
84	1243712	1170736
86	535632	465440
88	1172192	1107888
90	451824	395216
92	408272	360016
94	982208	945712
96	269648	243600
98	831392	815024
100	165200	153744
102	130624	123712
104	716384	711152
106	99856	96320
108	681632	679488
110	85728	84096
112	94896	93888
114	654176	653472
116	55360	55136
118	596032	595920
120	50528	50464
122	59104	59088
124	595696	595696
126	78112	78080
128	701360	701328
132	676848	676736
136	644944	644512
140	163248	160496
144	631248	629968
148	624688	618992
152	622464	622032
156	574704	574560
160	170912	169760
164	575200	573104
168	579472	579376
172	578896	578880
176	570784	570768
180	206880	206848
184	555696	555632
188	534416	534384
192	475952	475936
196	419360	419344
200	90480	90464
204	397888	397888
208	387760	387760
212	387584	387568
216	389136	389120
220	126176	126128
224	417344	417264
228	418784	418384
232	378336	377888
236	339120	338240
240	77376	76352
244	316176	314816
248	324768	321888
252	311984	309056
256	422912	420192
264	684112	683936
272	599248	598928
280	338848	338848
288	476352	476352
296	298128	298128
304	492064	492064
312	453504	453504
320	290928	290928
328	399984	399952
336	257456	257440
344	384112	384048
352	349360	349360
360	252240	252240
368	353200	353184
376	229888	229872
384	296336	296336
392	262960	262960
400	187632	187616
408	287392	287392
416	217760	217760
424	252976	252976
432	211344	211344
440	145296	145296
448	231344	231344
456	190688	190672
464	213744	213728
472	174480	174480
480	116192	116176
488	178624	178624
496	154656	154624
504	177664	177664
512	267952	267936
528	280544	280512
544	282096	282064
560	224864	224864
576	210176	210176
592	209120	209120
608	206080	206064
624	184000	184000
640	190560	190528
656	148800	148800
672	148544	148544
688	167680	167664
704	139632	139584
720	146768	146736
736	121984	121984
752	111792	111776
768	120464	120448
784	117424	117424
800	112288	112272
816	95200	95168
832	100528	100512
848	88896	88864
864	95856	95840
880	93312	93280
896	73792	73712
912	86080	86016
928	73968	73952
944	74880	74464
960	75808	75296
976	65312	64800
992	70688	70080
1008	68272	68208
1024	134864	134688
1056	122304	121248
1088	109776	108352
1120	101408	101024
1152	103312	103136
1184	97312	97216
1216	87712	87648
1248	96272	93344
1280	92688	81584
1312	81856	81632
1344	73520	73440
1376	73872	73600
1408	73984	73952
1440	68608	68496
1472	68512	68320
1504	64656	64528
1536	63360	63248
1568	58560	58224
1600	59456	59376
1632	53808	53728
1664	54432	54304
1696	53264	53136
1728	51472	51376
1760	52624	52512
1792	52816	52672
1824	49632	49504
1856	42864	42816
1888	45120	45056
1920	42384	41936
1952	45488	45280
1984	43008	42752
2016	45888	45424
2048	98000	96400
2112	90112	89248
2176	83616	82816
2240	79520	79024
2304	76688	76384
2368	72608	72128
2432	69232	68704
2496	63632	63152
2560	58816	57808
2624	54176	53248
2688	52976	52352
2752	49872	49584
2816	50912	50576
2880	47584	47168
2944	47872	47536
3008	44416	44000
3072	42448	42128
3136	41872	41488
3200	39616	39360
3264	37728	37552
3328	40192	40080
3392	41712	41616
3456	36928	36832
3520	35872	35808
3584	34192	34128
3648	33456	33360
3712	32368	32256
3776	31888	31440
3840	33152	30576
3904	34704	30784
3968	32880	28176
4032	29936	24256
4096	67280	55040
4224	66784	53728
4352	65312	52400
4480	61696	48880
4608	56528	45104
4736	51440	46320
4864	46656	44704
4992	45904	44048
5120	42912	41280
5248	39408	37680
5376	40384	38976
5504	38752	37536
5632	41408	40192
5760	43216	41712
5888	41664	40480
6016	54464	53152
6144	56416	55264
6272	48384	47264
6400	43520	42176
6528	35360	34144
6656	37680	35936
6784	36704	35072
6912	35120	33728
7040	33472	32256
7168	30768	29456
7296	32416	30848
7424	31392	29936
7552	31776	30144
7680	30816	29248
7808	28448	27008
7936	28848	27232
8064	29520	27872
8192	57440	53648
8448	52240	48976
8704	55408	52560
8960	53872	51024
9216	48688	45040
9472	51984	49232
9728	46432	44064
9984	54320	52000
10240	36560	30352
10496	18320	16560
10752	17776	16416
11008	18160	16448
11264	21344	16272
11520	30976	21840
11776	21216	17424
12032	17776	15776
12288	20352	17616
12544	21760	17568
12800	27616	21920
13056	22384	18928
13312	26608	20208
13568	61552	42656
13824	29968	26400
14080	23568	19504
14336	24688	19360
14592	24208	18176
14848	30304	21200
15104	26560	17968
15360	22720	16256
15616	22720	16960
15872	25200	18944
16128	30976	25488
16384	43120	34768
16896	39824	33840
17408	38880	32848
17920	35328	29104
18432	28240	22720
18944	28160	23152
19456	25296	21216
19968	24592	20336
20480	24736	19520
20992	23824	19424
21504	22784	17680
22016	21792	17168
22528	19552	16192
23040	20736	16464
23552	22400	16336
24064	19136	13792
24576	17792	13792
25088	19456	15648
25600	20864	16384
26112	19424	15232
26624	16960	13264
27136	16320	13264
27648	17216	13200
28160	15072	11536
28672	13808	10288
29184	13296	10112
29696	15584	11632
30208	14096	11520
30720	12480	9584
31232	12848	10720
31744	11184	9104
32256	11472	9312
32768	21920	17024
33792	21168	16368
34816	20752	16544
35840	19088	14672
36864	18768	15024
37888	17456	13312
38912	16800	14640
39936	14944	12000
40960	13744	10800
41984	14784	11776
43008	13392	10464
44032	14576	10880
45056	14832	11264
46080	14128	11072
47104	14896	11344
48128	11952	9440
49152	13632	9792
50176	12160	8960
51200	16048	11104
52224	13504	9600
53248	14032	10960
54272	13568	10224
55296	14512	9184
56320	13184	9248
57344	16272	11456
58368	14112	9216
59392	14944	10480
60416	14768	9728
61440	14400	8736
62464	14896	10448
63488	14224	9872
64512	14544	8288
65536	26224	17056
67584	27584	18112
69632	27008	17696
71680	24416	14848
73728	24704	16112
75776	19792	14032
77824	16592	11776
79872	15264	10064
81920	13168	9440
83968	11280	8448
86016	11200	8032
88064	9536	6944
90112	9104	6928
92160	7760	6144
94208	8528	7296
96256	7168	5648
98304	7168	5872
100352	7152	6080
102400	7248	5792
104448	7216	6096
106496	6224	5216
108544	6384	5328
110592	5392	4784
112640	5616	4624
114688	5536	4768
116736	5072	4176
118784	5392	4432
120832	5200	4416
122880	5904	4944
124928	5664	4640
126976	9376	8384
129024	5824	4768
131072	8640	7520
135168	9488	7344
139264	8752	6992
143360	8816	7168
147456	8144	6432
151552	8592	6608
155648	9840	7456
159744	10592	7904
163840	11952	9632
167936	9584	6864
172032	9152	7200
176128	7712	6160
180224	9872	7264
184320	9696	7696
188416	6800	5104
192512	6944	5216
196608	8416	6624
200704	7440	5888
204800	7552	6144
208896	6720	4896
212992	6576	4784
217088	6768	4704
221184	7136	5024
225280	7040	5056
229376	5760	3984
233472	7056	4512
237568	6576	4656
241664	6624	4928
245760	5392	4080
249856	6176	4224
253952	5504	4208
258048	5840	4336
262144	10352	7392
270336	12736	8736
278528	10768	7552
286720	12592	8048
294912	10496	7040
303104	10352	6752
311296	11664	6880
319488	10240	7168
327680	8544	6096
335872	7056	4640
344064	6736	4320
352256	6480	4336
360448	6736	4400
368640	6496	3760
376832	6480	3936
385024	5904	3664
393216	4848	3968
401408	3168	2672
409600	3504	2832
417792	3072	2704
425984	3888	3424
434176	2848	2608
442368	3936	3568
450560	3840	3568
458752	3200	2784
466944	4160	3872
475136	2368	2064
483328	3152	2832
491520	2080	1776
499712	2544	2272
507904	2528	2336
516096	3952	3696
524288	4352	3840
540672	5936	5536
557056	4048	3664
573440	3280	3072
589824	3168	2960
606208	3152	3024
622592	4256	4032
638976	3152	2976
655360	4400	4272
671744	4048	3936
688128	2704	2592
704512	2768	2592
720896	2576	2464
737280	2512	2368
753664	2688	2672
770048	2496	2416
786432	2368	2304
802816	2048	2032
819200	2336	2304
835584	2240	2208
851968	1872	1872
868352	2272	2240
884736	2256	2256
901120	2304	2256
917504	2304	2288
933888	1616	1600
950272	2016	1936
966656	1760	1744
983040	2224	2192
999424	2048	2032
1015808	1664	1648
1032192	1648	1552
1048576	2960	2816
1081344	3472	3376
1114112	3536	3360
1146880	3408	3328
1179648	2480	2432
1212416	2576	2528
1245184	2512	2432
1277952	2256	2176
1310720	2800	2608
1343488	2736	2592
1376256	2736	2400
1409024	2304	2096
1441792	2096	1952
1474560	2000	1920
1507328	2064	1744
1540096	1952	1856
1572864	1520	1440
1605632	2192	1664
1638400	2144	1968
1671168	2848	2784
1703936	1968	1920
1736704	1840	1744
1769472	1744	1584
1802240	2064	2016
1835008	1888	1760
1867776	1696	1632
1900544	1648	1568
1933312	1824	1696
1966080	1904	1824
1998848	2096	2032
2031616	2064	1984
2064384	2032	1968
2097152	3680	3600
2162688	4032	4016
2228224	3088	2944
2293760	4416	4304
2359296	2896	2720
2424832	2848	2608
2490368	4064	3824
2555904	2816	2688
2621440	4720	4576
2686976	2400	2240
2752512	2912	2656
2818048	2496	2336
2883584	3568	3456
2949120	3136	2752
3014656	2880	2608
3080192	2992	2304
3145728	2592	2432
3211264	2656	2528
3276800	2256	2032
3342336	2688	2416
3407872	3888	3776
3473408	2384	2112
3538944	1776	1680
3604480	2272	1904
3670016	1856	1712
3735552	1904	1776
3801088	1744	1680
3866624	1632	1536
3932160	1680	1472
3997696	2672	1440
4063232	4144	2880
4128768	3968	1520
4194304	8416	2656
4325376	8464	2416
4456448	3760	2560
4587520	5856	2800
4718592	2528	2368
4849664	3104	2800
4980736	2160	1760
5111808	2240	1776
5242880	2320	1824
5373952	1936	1424
5505024	2736	1776
5636096	3632	1904
5767168	2320	1744
5898240	2960	1552
6029312	5728	2080
6160384	3968	1696
6291456	3504	2576
6422528	4224	3280
6553600	5920	2768
6684672	7696	5760
6815744	4896	2800
6946816	6512	3600
7077888	6528	3408
7208960	4656	2816
7340032	3840	2592
7471104	5792	2544
7602176	6080	3424
7733248	6656	2432
7864320	5136	2400
7995392	3888	2080
8126464	4704	2016
8257536	4736	2304
8388608	10544	4448
8650752	8080	4592
8912896	9200	3488
9175040	9840	4144
9437184	7520	4000
9699328	13824	3424
9961472	7216	3536
10223616	4304	3232
10485760	9536	2816
10747904	11936	4576
11010048	4288	3280
11272192	3008	2320
11534336	4016	3200
11796480	3552	2944
12058624	3008	2240
12320768	2816	2224
12582912	4288	3360
12845056	6272	5216
13107200	8352	7520
13369344	5312	4416
13631488	3440	2464
13893632	4768	3168
14155776	11472	10016
14417920	6432	5136
14680064	3584	2368
14942208	4576	2592
15204352	3552	2688
15466496	5584	3520
15728640	4976	1728
15990784	5888	3168
16252928	8192	2400
16515072	6272	1904
16777216	16976	2688
17301504	27424	2784
17825792	25968	2528
18350080	23008	3232
18874368	8576	3264
19398656	4400	2112
19922944	16688	3168
20447232	6000	2336
20971520	2704	1040
21495808	3552	1104
22020096	4448	2192
22544384	3776	2400
23068672	4624	1888
23592960	3120	1248
24117248	3920	1088
24641536	7376	4944
25165824	5680	2960
25690112	3440	528
26214400	4768	800
26738688	2576	688
27262976	2464	560
27787264	1920	496
28311552	3056	1088
28835840	1584	352
29360128	2512	816
29884416	5088	1632
30408704	3600	224
30932992	2704	384
31457280	3152	480
31981568	2336	336
32505856	2416	176
33030144	3472	752
33554432	4400	352
34603008	6080	272
35651584	3632	400
36700160	12368	672
37748736	10416	800
38797312	14144	1392
39845888	17712	1456
40894464	11696	1008
41943040	10336	1200
42991616	12928	1440
44040192	18512	1248
45088768	9744	976
46137344	12160	880
47185920	10464	336
48234496	15536	224
49283072	17088	144
50331648	4352	128
51380224	32	32
52428800	16	16
53477376	64	64
54525952	0	0
55574528	16	16
56623104	16	16
57671680	0	0
58720256	32	32
59768832	0	0
60817408	0	0
61865984	0	0
62914560	0	0
63963136	0	0
65011712	0	0
66060288	0	0
67108864	0	0
69206016	0	0
71303168	0	0
73400320	0	0
75497472	0	0
77594624	0	0
79691776	0	0
81788928	0	0
83886080	0	0
85983232	0	0
88080384	0	0
90177536	0	0
92274688	0	0
94371840	0	0
96468992	0	0
98566144	0	0
100663296	0	0
102760448	0	0
104857600	0	0
106954752	0	0
109051904	0	0
111149056	0	0
113246208	0	0
115343360	0	0
117440512	0	0
119537664	0	0
121634816	0	0
123731968	0	0
125829120	0	0
127926272	0	0
130023424	0	0
132120576	0	0
134217728	0	0
138412032	0	0
142606336	0	0
146800640	0	0
150994944	0	0
155189248	0	0
159383552	0	0
163577856	0	0
167772160	0	0
171966464	0	0
176160768	0	0
180355072	0	0
184549376	0	0
188743680	0	0
192937984	0	0
197132288	0	0
201326592	0	0
205520896	0	0
209715200	0	0
213909504	0	0
218103808	0	0
222298112	0	0
226492416	0	0
230686720	0	0
234881024	0	0
239075328	0	0
243269632	0	0
247463936	0	0
251658240	0	0
255852544	0	0
260046848	0	0
264241152	0	0
268435456	0	0
276824064	0	0
285212672	0	0
293601280	0	0
301989888	0	0
310378496	0	0
318767104	0	0
327155712	0	0
335544320	0	0
343932928	0	0
352321536	0	0
360710144	0	0
369098752	0	0
377487360	0	0
385875968	0	0
394264576	0	0
402653184	0	0
411041792	0	0
419430400	0	0
427819008	0	0
436207616	0	0
444596224	0	0
452984832	0	0
461373440	0	0
469762048	0	0
478150656	0	0
486539264	0	0
494927872	0	0
503316480	0	0
511705088	0	0
520093696	0	0
528482304	0	0
536870912	0	0
553648128	0	0
570425344	0	0
587202560	0	0
603979776	0	0
620756992	0	0
637534208	0	0
654311424	0	0
671088640	0	0
687865856	0	0
704643072	0	0
721420288	0	0
738197504	0	0
754974720	0	0
771751936	0	0
788529152	0	0
805306368	0	0
822083584	0	0
838860800	0	0
855638016	0	0
872415232	0	0
889192448	0	0
905969664	0	0
922746880	0	0
939524096	0	0
956301312	0	0
973078528	0	0
989855744	0	0
1006632960	0	0
1023410176	0	0
1040187392	0	0
1056964608	0	0
1073741824	0	0
1107296256	0	0
1140850688	0	0
1174405120	0	0
1207959552	0	0
1241513984	0	0
1275068416	0	0
1308622848	0	0
1342177280	0	0
1375731712	0	0
1409286144	0	0
1442840576	0	0
1476395008	0	0
1509949440	0	0
1543503872	0	0
1577058304	0	0
1610612736	0	0
1644167168	0	0
1677721600	0	0
1711276032	0	0
1744830464	0	0
1778384896	0	0
1811939328	0	0
1845493760	0	0
1879048192	0	0
1912602624	0	0
1946157056	0	0
1979711488	0	0
2013265920	0	0
2046820352	0	0
2080374784	0	0
2113929216	0	0
2147483648	0	0
2214592512	0	0
2281701376	0	0
2348810240	0	0
2415919104	0	0
2483027968	0	0
2550136832	0	0
2617245696	0	0
2684354560	0	0
2751463424	0	0
2818572288	0	0
2885681152	0	0
2952790016	0	0
3019898880	0	0
3087007744	0	0
3154116608	0	0
3221225472	0	0
3288334336	0	0
3355443200	0	0
3422552064	0	0
3489660928	0	0
3556769792	0	0
3623878656	0	0
3690987520	0	0
3758096384	0	0
3825205248	0	0
3892314112	0	0
3959422976	0	0
4026531840	0	0
4093640704	0	0
4160749568	0	0
4227858432	0	0
~~~~~~~~~~Reuse Distance Profiler output end~~~~~~~~~~

DRAM Statistics
 CHANNEL 0
 RQ ROW_BUFFER_HIT:     161520  ROW_BUFFER_MISS:     967643
 DBUS AVG_CONGESTED_CYCLE:    3.95063
 WQ ROW_BUFFER_HIT:      87815  ROW_BUFFER_MISS:     813528  FULL:          0


CPU 0 Branch Prediction Accuracy: 84.6727% MPKI: 16.4377 Average ROB Occupancy at Mispredict: 25.6803
Branch type MPKI
BRANCH_DIRECT_JUMP: 1.2e-05
BRANCH_INDIRECT: 0.0472873
BRANCH_CONDITIONAL: 16.3904
BRANCH_DIRECT_CALL: 1.33333e-06
BRANCH_INDIRECT_CALL: 3.46667e-05
BRANCH_RETURN: 1.33333e-06

