
*** ChampSim Multicore Out-of-Order Simulator ***

Warmup Instructions: 500000000
Simulation Instructions: 1500000000
Number of CPUs: 1
Off-chip DRAM Size: 4 GiB Channels: 1 Width: 64-bit Data Rate: 3200 MT/s

VirtualMemory physical capacity: 8588881920 num_ppages: 2096895
VirtualMemory page size: 4096 log2_page_size: 12

CPU 0 runs traces/657.xz_s-2302B.champsimtrace.xz
CPU 0 Bimodal branch predictor
Basic BTB sets: 1024 ways: 8 indirect buffer size: 4096 RAS size: 64
Initializing LRU.
Initializing LRU.
Initializing LRU.
Initializing LRU.
Initializing rdLRU.
Initializing LRU.
Initializing LRU.
Heartbeat CPU 0 instructions: 10000002 cycles: 2503093 heartbeat IPC: 3.99506 cumulative IPC: 3.99506 (Simulation time: 0 hr 0 min 46 sec) 
Heartbeat CPU 0 instructions: 20000002 cycles: 5006102 heartbeat IPC: 3.99519 cumulative IPC: 3.99512 (Simulation time: 0 hr 1 min 40 sec) 
Heartbeat CPU 0 instructions: 30000002 cycles: 7520090 heartbeat IPC: 3.97774 cumulative IPC: 3.98931 (Simulation time: 0 hr 2 min 34 sec) 
Heartbeat CPU 0 instructions: 40000003 cycles: 10023092 heartbeat IPC: 3.9952 cumulative IPC: 3.99078 (Simulation time: 0 hr 3 min 24 sec) 
Heartbeat CPU 0 instructions: 50000000 cycles: 12526082 heartbeat IPC: 3.99522 cumulative IPC: 3.99167 (Simulation time: 0 hr 4 min 10 sec) 
Heartbeat CPU 0 instructions: 60000001 cycles: 15029083 heartbeat IPC: 3.9952 cumulative IPC: 3.99226 (Simulation time: 0 hr 5 min 2 sec) 
Heartbeat CPU 0 instructions: 70000001 cycles: 17532170 heartbeat IPC: 3.99507 cumulative IPC: 3.99266 (Simulation time: 0 hr 5 min 55 sec) 
Heartbeat CPU 0 instructions: 80000001 cycles: 20038259 heartbeat IPC: 3.99028 cumulative IPC: 3.99236 (Simulation time: 0 hr 6 min 42 sec) 
Heartbeat CPU 0 instructions: 90000003 cycles: 22541283 heartbeat IPC: 3.99517 cumulative IPC: 3.99267 (Simulation time: 0 hr 7 min 31 sec) 
Heartbeat CPU 0 instructions: 100000001 cycles: 25044592 heartbeat IPC: 3.99471 cumulative IPC: 3.99288 (Simulation time: 0 hr 8 min 23 sec) 
Heartbeat CPU 0 instructions: 110000001 cycles: 27551389 heartbeat IPC: 3.98915 cumulative IPC: 3.99254 (Simulation time: 0 hr 9 min 17 sec) 
Heartbeat CPU 0 instructions: 120000003 cycles: 30054380 heartbeat IPC: 3.99522 cumulative IPC: 3.99276 (Simulation time: 0 hr 10 min 8 sec) 
Heartbeat CPU 0 instructions: 130000001 cycles: 32558373 heartbeat IPC: 3.99362 cumulative IPC: 3.99283 (Simulation time: 0 hr 10 min 57 sec) 
Heartbeat CPU 0 instructions: 140000003 cycles: 35065253 heartbeat IPC: 3.98902 cumulative IPC: 3.99256 (Simulation time: 0 hr 11 min 47 sec) 
Heartbeat CPU 0 instructions: 150000003 cycles: 37569709 heartbeat IPC: 3.99288 cumulative IPC: 3.99258 (Simulation time: 0 hr 12 min 33 sec) 
Heartbeat CPU 0 instructions: 160000003 cycles: 40077156 heartbeat IPC: 3.98812 cumulative IPC: 3.9923 (Simulation time: 0 hr 13 min 27 sec) 
Heartbeat CPU 0 instructions: 170000002 cycles: 42580146 heartbeat IPC: 3.99522 cumulative IPC: 3.99247 (Simulation time: 0 hr 14 min 22 sec) 
Heartbeat CPU 0 instructions: 180000000 cycles: 45083143 heartbeat IPC: 3.99521 cumulative IPC: 3.99262 (Simulation time: 0 hr 15 min 16 sec) 
Heartbeat CPU 0 instructions: 190000002 cycles: 47586134 heartbeat IPC: 3.99522 cumulative IPC: 3.99276 (Simulation time: 0 hr 16 min 10 sec) 
Heartbeat CPU 0 instructions: 200000002 cycles: 50086134 heartbeat IPC: 4 cumulative IPC: 3.99312 (Simulation time: 0 hr 17 min 4 sec) 
Heartbeat CPU 0 instructions: 210000001 cycles: 52589132 heartbeat IPC: 3.99521 cumulative IPC: 3.99322 (Simulation time: 0 hr 17 min 55 sec) 
Heartbeat CPU 0 instructions: 220000002 cycles: 55092136 heartbeat IPC: 3.9952 cumulative IPC: 3.99331 (Simulation time: 0 hr 18 min 45 sec) 
Heartbeat CPU 0 instructions: 230000000 cycles: 57595131 heartbeat IPC: 3.99521 cumulative IPC: 3.99339 (Simulation time: 0 hr 19 min 38 sec) 
Heartbeat CPU 0 instructions: 240000003 cycles: 60098132 heartbeat IPC: 3.99521 cumulative IPC: 3.99347 (Simulation time: 0 hr 20 min 30 sec) 
Heartbeat CPU 0 instructions: 250000002 cycles: 62601132 heartbeat IPC: 3.99521 cumulative IPC: 3.99354 (Simulation time: 0 hr 21 min 24 sec) 
Heartbeat CPU 0 instructions: 260000002 cycles: 65101132 heartbeat IPC: 4 cumulative IPC: 3.99379 (Simulation time: 0 hr 22 min 17 sec) 
Heartbeat CPU 0 instructions: 270000002 cycles: 67604132 heartbeat IPC: 3.99521 cumulative IPC: 3.99384 (Simulation time: 0 hr 23 min 5 sec) 
Heartbeat CPU 0 instructions: 280000003 cycles: 70107132 heartbeat IPC: 3.99521 cumulative IPC: 3.99389 (Simulation time: 0 hr 23 min 56 sec) 
Heartbeat CPU 0 instructions: 290000003 cycles: 72610123 heartbeat IPC: 3.99522 cumulative IPC: 3.99393 (Simulation time: 0 hr 24 min 51 sec) 
Heartbeat CPU 0 instructions: 300000000 cycles: 75124745 heartbeat IPC: 3.97674 cumulative IPC: 3.99336 (Simulation time: 0 hr 25 min 45 sec) 
Heartbeat CPU 0 instructions: 310000000 cycles: 77627746 heartbeat IPC: 3.9952 cumulative IPC: 3.99342 (Simulation time: 0 hr 26 min 39 sec) 
Heartbeat CPU 0 instructions: 320000003 cycles: 80130755 heartbeat IPC: 3.99519 cumulative IPC: 3.99347 (Simulation time: 0 hr 27 min 30 sec) 
Heartbeat CPU 0 instructions: 330000003 cycles: 82636375 heartbeat IPC: 3.99103 cumulative IPC: 3.9934 (Simulation time: 0 hr 28 min 24 sec) 
Heartbeat CPU 0 instructions: 340000002 cycles: 85286353 heartbeat IPC: 3.77362 cumulative IPC: 3.98657 (Simulation time: 0 hr 29 min 22 sec) 
Heartbeat CPU 0 instructions: 350000003 cycles: 87792334 heartbeat IPC: 3.99045 cumulative IPC: 3.98668 (Simulation time: 0 hr 30 min 13 sec) 
Heartbeat CPU 0 instructions: 360000000 cycles: 90295337 heartbeat IPC: 3.9952 cumulative IPC: 3.98692 (Simulation time: 0 hr 30 min 58 sec) 
Heartbeat CPU 0 instructions: 370000002 cycles: 92804393 heartbeat IPC: 3.98556 cumulative IPC: 3.98688 (Simulation time: 0 hr 31 min 49 sec) 
Heartbeat CPU 0 instructions: 380000000 cycles: 95307377 heartbeat IPC: 3.99523 cumulative IPC: 3.9871 (Simulation time: 0 hr 32 min 39 sec) 
Heartbeat CPU 0 instructions: 390000003 cycles: 97813357 heartbeat IPC: 3.99046 cumulative IPC: 3.98719 (Simulation time: 0 hr 33 min 31 sec) 
Heartbeat CPU 0 instructions: 400000002 cycles: 100316343 heartbeat IPC: 3.99523 cumulative IPC: 3.98739 (Simulation time: 0 hr 34 min 18 sec) 
Heartbeat CPU 0 instructions: 410000000 cycles: 102819336 heartbeat IPC: 3.99522 cumulative IPC: 3.98758 (Simulation time: 0 hr 35 min 10 sec) 
Heartbeat CPU 0 instructions: 420000000 cycles: 105327982 heartbeat IPC: 3.98621 cumulative IPC: 3.98754 (Simulation time: 0 hr 36 min 4 sec) 
Heartbeat CPU 0 instructions: 430000000 cycles: 107834159 heartbeat IPC: 3.99014 cumulative IPC: 3.9876 (Simulation time: 0 hr 36 min 53 sec) 
Heartbeat CPU 0 instructions: 440000002 cycles: 110343507 heartbeat IPC: 3.9851 cumulative IPC: 3.98755 (Simulation time: 0 hr 37 min 48 sec) 
Heartbeat CPU 0 instructions: 450000001 cycles: 112861436 heartbeat IPC: 3.97152 cumulative IPC: 3.98719 (Simulation time: 0 hr 38 min 36 sec) 
Heartbeat CPU 0 instructions: 460000001 cycles: 115373703 heartbeat IPC: 3.98047 cumulative IPC: 3.98704 (Simulation time: 0 hr 39 min 29 sec) 
Heartbeat CPU 0 instructions: 470000001 cycles: 117890420 heartbeat IPC: 3.97343 cumulative IPC: 3.98675 (Simulation time: 0 hr 40 min 18 sec) 
Heartbeat CPU 0 instructions: 480000002 cycles: 120403858 heartbeat IPC: 3.97861 cumulative IPC: 3.98658 (Simulation time: 0 hr 41 min 6 sec) 
Heartbeat CPU 0 instructions: 490000000 cycles: 122911335 heartbeat IPC: 3.98807 cumulative IPC: 3.98661 (Simulation time: 0 hr 41 min 55 sec) 
Heartbeat CPU 0 instructions: 500000002 cycles: 125431297 heartbeat IPC: 3.96831 cumulative IPC: 3.98625 (Simulation time: 0 hr 42 min 41 sec) 

Warmup complete CPU 0 instructions: 500000002 cycles: 125431297 (Simulation time: 0 hr 42 min 41 sec) 

Heartbeat CPU 0 instructions: 510000003 cycles: 131472371 heartbeat IPC: 1.65533 cumulative IPC: 1.65533 (Simulation time: 0 hr 43 min 27 sec) 
Heartbeat CPU 0 instructions: 520000001 cycles: 137821593 heartbeat IPC: 1.575 cumulative IPC: 1.61417 (Simulation time: 0 hr 44 min 10 sec) 
Heartbeat CPU 0 instructions: 530000000 cycles: 144041345 heartbeat IPC: 1.60778 cumulative IPC: 1.61203 (Simulation time: 0 hr 44 min 56 sec) 
Heartbeat CPU 0 instructions: 540000001 cycles: 152054566 heartbeat IPC: 1.24794 cumulative IPC: 1.50245 (Simulation time: 0 hr 45 min 44 sec) 
Heartbeat CPU 0 instructions: 550000000 cycles: 160330348 heartbeat IPC: 1.20834 cumulative IPC: 1.4327 (Simulation time: 0 hr 46 min 34 sec) 
Heartbeat CPU 0 instructions: 560000003 cycles: 167917516 heartbeat IPC: 1.31802 cumulative IPC: 1.41222 (Simulation time: 0 hr 47 min 15 sec) 
Heartbeat CPU 0 instructions: 570000003 cycles: 175536901 heartbeat IPC: 1.31244 cumulative IPC: 1.39705 (Simulation time: 0 hr 47 min 52 sec) 
Heartbeat CPU 0 instructions: 580000000 cycles: 182492767 heartbeat IPC: 1.43764 cumulative IPC: 1.402 (Simulation time: 0 hr 48 min 30 sec) 
Heartbeat CPU 0 instructions: 590000004 cycles: 189914990 heartbeat IPC: 1.34731 cumulative IPC: 1.3957 (Simulation time: 0 hr 49 min 12 sec) 
Heartbeat CPU 0 instructions: 600000002 cycles: 197144278 heartbeat IPC: 1.38326 cumulative IPC: 1.39445 (Simulation time: 0 hr 49 min 54 sec) 
Heartbeat CPU 0 instructions: 610000002 cycles: 205375695 heartbeat IPC: 1.21486 cumulative IPC: 1.37596 (Simulation time: 0 hr 50 min 46 sec) 
Heartbeat CPU 0 instructions: 620000004 cycles: 212893359 heartbeat IPC: 1.3302 cumulative IPC: 1.37202 (Simulation time: 0 hr 51 min 37 sec) 
Heartbeat CPU 0 instructions: 630000000 cycles: 219765449 heartbeat IPC: 1.45516 cumulative IPC: 1.37808 (Simulation time: 0 hr 52 min 24 sec) 
Heartbeat CPU 0 instructions: 640000000 cycles: 227312261 heartbeat IPC: 1.32506 cumulative IPC: 1.37415 (Simulation time: 0 hr 53 min 5 sec) 
Heartbeat CPU 0 instructions: 650000003 cycles: 234079498 heartbeat IPC: 1.47771 cumulative IPC: 1.3806 (Simulation time: 0 hr 53 min 40 sec) 
Heartbeat CPU 0 instructions: 660000002 cycles: 241190406 heartbeat IPC: 1.40629 cumulative IPC: 1.38218 (Simulation time: 0 hr 54 min 22 sec) 
Heartbeat CPU 0 instructions: 670000001 cycles: 247948567 heartbeat IPC: 1.47969 cumulative IPC: 1.38756 (Simulation time: 0 hr 55 min 7 sec) 
Heartbeat CPU 0 instructions: 680000003 cycles: 255639565 heartbeat IPC: 1.30022 cumulative IPC: 1.3824 (Simulation time: 0 hr 55 min 55 sec) 
Heartbeat CPU 0 instructions: 690000003 cycles: 262806138 heartbeat IPC: 1.39537 cumulative IPC: 1.38308 (Simulation time: 0 hr 56 min 44 sec) 
Heartbeat CPU 0 instructions: 700000001 cycles: 270498564 heartbeat IPC: 1.29998 cumulative IPC: 1.37867 (Simulation time: 0 hr 57 min 32 sec) 
Heartbeat CPU 0 instructions: 710000004 cycles: 277371354 heartbeat IPC: 1.45501 cumulative IPC: 1.38212 (Simulation time: 0 hr 58 min 15 sec) 
Heartbeat CPU 0 instructions: 720000004 cycles: 285031566 heartbeat IPC: 1.30545 cumulative IPC: 1.37844 (Simulation time: 0 hr 58 min 59 sec) 
Heartbeat CPU 0 instructions: 730000001 cycles: 292283897 heartbeat IPC: 1.37887 cumulative IPC: 1.37846 (Simulation time: 0 hr 59 min 46 sec) 
Heartbeat CPU 0 instructions: 740000004 cycles: 301619947 heartbeat IPC: 1.07112 cumulative IPC: 1.36218 (Simulation time: 1 hr 0 min 37 sec) 
Heartbeat CPU 0 instructions: 750000002 cycles: 312205653 heartbeat IPC: 0.94467 cumulative IPC: 1.33851 (Simulation time: 1 hr 1 min 31 sec) 
Heartbeat CPU 0 instructions: 760000001 cycles: 323127900 heartbeat IPC: 0.915562 cumulative IPC: 1.31515 (Simulation time: 1 hr 2 min 30 sec) 
Heartbeat CPU 0 instructions: 770000001 cycles: 333674812 heartbeat IPC: 0.948145 cumulative IPC: 1.29656 (Simulation time: 1 hr 3 min 22 sec) 
Heartbeat CPU 0 instructions: 780000000 cycles: 343951932 heartbeat IPC: 0.973035 cumulative IPC: 1.28134 (Simulation time: 1 hr 4 min 8 sec) 
Heartbeat CPU 0 instructions: 790000000 cycles: 355375400 heartbeat IPC: 0.875391 cumulative IPC: 1.26118 (Simulation time: 1 hr 5 min 6 sec) 
Heartbeat CPU 0 instructions: 800000001 cycles: 365712535 heartbeat IPC: 0.967386 cumulative IPC: 1.24854 (Simulation time: 1 hr 6 min 7 sec) 
Heartbeat CPU 0 instructions: 810000000 cycles: 376428107 heartbeat IPC: 0.933221 cumulative IPC: 1.23508 (Simulation time: 1 hr 7 min 7 sec) 
Heartbeat CPU 0 instructions: 820000002 cycles: 387484258 heartbeat IPC: 0.904474 cumulative IPC: 1.22113 (Simulation time: 1 hr 8 min 5 sec) 
Heartbeat CPU 0 instructions: 830000003 cycles: 398133957 heartbeat IPC: 0.938994 cumulative IPC: 1.21011 (Simulation time: 1 hr 9 min 0 sec) 
Heartbeat CPU 0 instructions: 840000001 cycles: 408291922 heartbeat IPC: 0.984449 cumulative IPC: 1.20201 (Simulation time: 1 hr 9 min 55 sec) 
Heartbeat CPU 0 instructions: 850000001 cycles: 419033469 heartbeat IPC: 0.930965 cumulative IPC: 1.19209 (Simulation time: 1 hr 10 min 53 sec) 
Heartbeat CPU 0 instructions: 860000000 cycles: 429070025 heartbeat IPC: 0.996358 cumulative IPC: 1.18562 (Simulation time: 1 hr 11 min 49 sec) 
Heartbeat CPU 0 instructions: 870000002 cycles: 439499077 heartbeat IPC: 0.95886 cumulative IPC: 1.17809 (Simulation time: 1 hr 12 min 47 sec) 
Heartbeat CPU 0 instructions: 880000000 cycles: 448179241 heartbeat IPC: 1.15205 cumulative IPC: 1.17739 (Simulation time: 1 hr 13 min 34 sec) 
Heartbeat CPU 0 instructions: 890000003 cycles: 457360685 heartbeat IPC: 1.08915 cumulative IPC: 1.17495 (Simulation time: 1 hr 14 min 29 sec) 
Heartbeat CPU 0 instructions: 900000002 cycles: 467714270 heartbeat IPC: 0.965849 cumulative IPC: 1.16862 (Simulation time: 1 hr 15 min 16 sec) 
Heartbeat CPU 0 instructions: 910000002 cycles: 478585431 heartbeat IPC: 0.919865 cumulative IPC: 1.16097 (Simulation time: 1 hr 16 min 1 sec) 
Heartbeat CPU 0 instructions: 920000002 cycles: 489412036 heartbeat IPC: 0.923651 cumulative IPC: 1.15391 (Simulation time: 1 hr 16 min 57 sec) 
Heartbeat CPU 0 instructions: 930000003 cycles: 499397019 heartbeat IPC: 1.0015 cumulative IPC: 1.14984 (Simulation time: 1 hr 17 min 51 sec) 
Heartbeat CPU 0 instructions: 940000000 cycles: 508486864 heartbeat IPC: 1.10013 cumulative IPC: 1.14866 (Simulation time: 1 hr 18 min 48 sec) 
Heartbeat CPU 0 instructions: 950000000 cycles: 518624795 heartbeat IPC: 0.986395 cumulative IPC: 1.14447 (Simulation time: 1 hr 19 min 44 sec) 
Heartbeat CPU 0 instructions: 960000001 cycles: 529711380 heartbeat IPC: 0.901991 cumulative IPC: 1.13783 (Simulation time: 1 hr 20 min 44 sec) 
Heartbeat CPU 0 instructions: 970000001 cycles: 540350776 heartbeat IPC: 0.939903 cumulative IPC: 1.13275 (Simulation time: 1 hr 21 min 37 sec) 
Heartbeat CPU 0 instructions: 980000001 cycles: 550673705 heartbeat IPC: 0.968717 cumulative IPC: 1.12877 (Simulation time: 1 hr 22 min 35 sec) 
Heartbeat CPU 0 instructions: 990000004 cycles: 560729615 heartbeat IPC: 0.99444 cumulative IPC: 1.12566 (Simulation time: 1 hr 23 min 31 sec) 
Heartbeat CPU 0 instructions: 1000000004 cycles: 571593648 heartbeat IPC: 0.920469 cumulative IPC: 1.12067 (Simulation time: 1 hr 24 min 29 sec) 
Heartbeat CPU 0 instructions: 1010000002 cycles: 582227173 heartbeat IPC: 0.940422 cumulative IPC: 1.11647 (Simulation time: 1 hr 25 min 30 sec) 
Heartbeat CPU 0 instructions: 1020000004 cycles: 592756704 heartbeat IPC: 0.94971 cumulative IPC: 1.11272 (Simulation time: 1 hr 26 min 30 sec) 
Heartbeat CPU 0 instructions: 1030000001 cycles: 603553795 heartbeat IPC: 0.926175 cumulative IPC: 1.1085 (Simulation time: 1 hr 27 min 31 sec) 
Heartbeat CPU 0 instructions: 1040000001 cycles: 614319343 heartbeat IPC: 0.928889 cumulative IPC: 1.10455 (Simulation time: 1 hr 28 min 32 sec) 
Heartbeat CPU 0 instructions: 1050000001 cycles: 624850002 heartbeat IPC: 0.949608 cumulative IPC: 1.10128 (Simulation time: 1 hr 29 min 23 sec) 
Heartbeat CPU 0 instructions: 1060000002 cycles: 635290863 heartbeat IPC: 0.957776 cumulative IPC: 1.09834 (Simulation time: 1 hr 30 min 22 sec) 
Heartbeat CPU 0 instructions: 1070000004 cycles: 645690549 heartbeat IPC: 0.961568 cumulative IPC: 1.09561 (Simulation time: 1 hr 31 min 22 sec) 
Heartbeat CPU 0 instructions: 1080000003 cycles: 656300531 heartbeat IPC: 0.942509 cumulative IPC: 1.09255 (Simulation time: 1 hr 32 min 11 sec) 
Heartbeat CPU 0 instructions: 1090000000 cycles: 666695747 heartbeat IPC: 0.961981 cumulative IPC: 1.09004 (Simulation time: 1 hr 32 min 57 sec) 
Heartbeat CPU 0 instructions: 1100000001 cycles: 677618734 heartbeat IPC: 0.915501 cumulative IPC: 1.08659 (Simulation time: 1 hr 33 min 56 sec) 
Heartbeat CPU 0 instructions: 1110000000 cycles: 688336519 heartbeat IPC: 0.933029 cumulative IPC: 1.08366 (Simulation time: 1 hr 34 min 45 sec) 
Heartbeat CPU 0 instructions: 1120000003 cycles: 698880690 heartbeat IPC: 0.948392 cumulative IPC: 1.08118 (Simulation time: 1 hr 35 min 30 sec) 
Heartbeat CPU 0 instructions: 1130000000 cycles: 709821932 heartbeat IPC: 0.913973 cumulative IPC: 1.07805 (Simulation time: 1 hr 36 min 16 sec) 
Heartbeat CPU 0 instructions: 1140000000 cycles: 720425981 heartbeat IPC: 0.943036 cumulative IPC: 1.07564 (Simulation time: 1 hr 37 min 18 sec) 
Heartbeat CPU 0 instructions: 1150000003 cycles: 730956616 heartbeat IPC: 0.949611 cumulative IPC: 1.07345 (Simulation time: 1 hr 38 min 19 sec) 
Heartbeat CPU 0 instructions: 1160000002 cycles: 741406047 heartbeat IPC: 0.95699 cumulative IPC: 1.07147 (Simulation time: 1 hr 39 min 19 sec) 
Heartbeat CPU 0 instructions: 1170000002 cycles: 752071638 heartbeat IPC: 0.937595 cumulative IPC: 1.06919 (Simulation time: 1 hr 40 min 19 sec) 
Heartbeat CPU 0 instructions: 1180000003 cycles: 763062514 heartbeat IPC: 0.909846 cumulative IPC: 1.06645 (Simulation time: 1 hr 41 min 18 sec) 
Heartbeat CPU 0 instructions: 1190000001 cycles: 773538331 heartbeat IPC: 0.954579 cumulative IPC: 1.06464 (Simulation time: 1 hr 42 min 18 sec) 
Heartbeat CPU 0 instructions: 1200000000 cycles: 784262879 heartbeat IPC: 0.93244 cumulative IPC: 1.06249 (Simulation time: 1 hr 43 min 16 sec) 
Heartbeat CPU 0 instructions: 1210000003 cycles: 794724338 heartbeat IPC: 0.95589 cumulative IPC: 1.06082 (Simulation time: 1 hr 43 min 52 sec) 
Heartbeat CPU 0 instructions: 1220000001 cycles: 805475994 heartbeat IPC: 0.930089 cumulative IPC: 1.05875 (Simulation time: 1 hr 44 min 48 sec) 
Heartbeat CPU 0 instructions: 1230000001 cycles: 815875066 heartbeat IPC: 0.961624 cumulative IPC: 1.05729 (Simulation time: 1 hr 45 min 28 sec) 
Heartbeat CPU 0 instructions: 1240000001 cycles: 826740455 heartbeat IPC: 0.920354 cumulative IPC: 1.05517 (Simulation time: 1 hr 46 min 8 sec) 
Heartbeat CPU 0 instructions: 1250000001 cycles: 837962044 heartbeat IPC: 0.891139 cumulative IPC: 1.05259 (Simulation time: 1 hr 46 min 46 sec) 
Heartbeat CPU 0 instructions: 1260000001 cycles: 848228383 heartbeat IPC: 0.974057 cumulative IPC: 1.05147 (Simulation time: 1 hr 47 min 42 sec) 
Heartbeat CPU 0 instructions: 1270000000 cycles: 858970136 heartbeat IPC: 0.930947 cumulative IPC: 1.04971 (Simulation time: 1 hr 48 min 43 sec) 
Heartbeat CPU 0 instructions: 1280000000 cycles: 869080067 heartbeat IPC: 0.989126 cumulative IPC: 1.04888 (Simulation time: 1 hr 49 min 43 sec) 
Heartbeat CPU 0 instructions: 1290000002 cycles: 879777565 heartbeat IPC: 0.934798 cumulative IPC: 1.04726 (Simulation time: 1 hr 50 min 21 sec) 
Heartbeat CPU 0 instructions: 1300000004 cycles: 890576646 heartbeat IPC: 0.926005 cumulative IPC: 1.04555 (Simulation time: 1 hr 51 min 16 sec) 
Heartbeat CPU 0 instructions: 1310000001 cycles: 900977082 heartbeat IPC: 0.961498 cumulative IPC: 1.04443 (Simulation time: 1 hr 52 min 19 sec) 
Heartbeat CPU 0 instructions: 1320000002 cycles: 911528099 heartbeat IPC: 0.947776 cumulative IPC: 1.04313 (Simulation time: 1 hr 53 min 17 sec) 
Heartbeat CPU 0 instructions: 1330000004 cycles: 922282031 heartbeat IPC: 0.929893 cumulative IPC: 1.0416 (Simulation time: 1 hr 54 min 19 sec) 
Heartbeat CPU 0 instructions: 1340000003 cycles: 932902476 heartbeat IPC: 0.94158 cumulative IPC: 1.04028 (Simulation time: 1 hr 55 min 11 sec) 
Heartbeat CPU 0 instructions: 1350000003 cycles: 943688799 heartbeat IPC: 0.9271 cumulative IPC: 1.03879 (Simulation time: 1 hr 56 min 3 sec) 
Heartbeat CPU 0 instructions: 1360000003 cycles: 954102316 heartbeat IPC: 0.96029 cumulative IPC: 1.03781 (Simulation time: 1 hr 56 min 56 sec) 
Heartbeat CPU 0 instructions: 1370000000 cycles: 964320047 heartbeat IPC: 0.978691 cumulative IPC: 1.03709 (Simulation time: 1 hr 57 min 34 sec) 
Heartbeat CPU 0 instructions: 1380000001 cycles: 975185278 heartbeat IPC: 0.920367 cumulative IPC: 1.03559 (Simulation time: 1 hr 58 min 21 sec) 
Heartbeat CPU 0 instructions: 1390000004 cycles: 985937114 heartbeat IPC: 0.930074 cumulative IPC: 1.03428 (Simulation time: 1 hr 59 min 10 sec) 
Heartbeat CPU 0 instructions: 1400000001 cycles: 996804643 heartbeat IPC: 0.920172 cumulative IPC: 1.03285 (Simulation time: 2 hr 0 min 11 sec) 
Heartbeat CPU 0 instructions: 1410000003 cycles: 1007077168 heartbeat IPC: 0.973471 cumulative IPC: 1.03216 (Simulation time: 2 hr 1 min 12 sec) 
Heartbeat CPU 0 instructions: 1420000001 cycles: 1018409109 heartbeat IPC: 0.882461 cumulative IPC: 1.03026 (Simulation time: 2 hr 2 min 15 sec) 
Heartbeat CPU 0 instructions: 1430000002 cycles: 1029594842 heartbeat IPC: 0.893996 cumulative IPC: 1.02857 (Simulation time: 2 hr 3 min 17 sec) 
Heartbeat CPU 0 instructions: 1440000004 cycles: 1040895487 heartbeat IPC: 0.884905 cumulative IPC: 1.0268 (Simulation time: 2 hr 4 min 19 sec) 
Heartbeat CPU 0 instructions: 1450000000 cycles: 1051685439 heartbeat IPC: 0.926788 cumulative IPC: 1.02564 (Simulation time: 2 hr 5 min 7 sec) 
Heartbeat CPU 0 instructions: 1460000003 cycles: 1062895538 heartbeat IPC: 0.892053 cumulative IPC: 1.02404 (Simulation time: 2 hr 5 min 58 sec) 
Heartbeat CPU 0 instructions: 1470000000 cycles: 1073832423 heartbeat IPC: 0.914337 cumulative IPC: 1.02277 (Simulation time: 2 hr 6 min 43 sec) 
Heartbeat CPU 0 instructions: 1480000001 cycles: 1084814599 heartbeat IPC: 0.910566 cumulative IPC: 1.02149 (Simulation time: 2 hr 7 min 30 sec) 
Heartbeat CPU 0 instructions: 1490000000 cycles: 1095962283 heartbeat IPC: 0.897047 cumulative IPC: 1.02006 (Simulation time: 2 hr 8 min 29 sec) 
Heartbeat CPU 0 instructions: 1500000000 cycles: 1107195736 heartbeat IPC: 0.890198 cumulative IPC: 1.01857 (Simulation time: 2 hr 9 min 33 sec) 
Heartbeat CPU 0 instructions: 1510000003 cycles: 1118138413 heartbeat IPC: 0.913853 cumulative IPC: 1.01742 (Simulation time: 2 hr 10 min 27 sec) 
Heartbeat CPU 0 instructions: 1520000002 cycles: 1129166111 heartbeat IPC: 0.906807 cumulative IPC: 1.0162 (Simulation time: 2 hr 11 min 9 sec) 
Heartbeat CPU 0 instructions: 1530000004 cycles: 1140035433 heartbeat IPC: 0.920021 cumulative IPC: 1.01517 (Simulation time: 2 hr 11 min 52 sec) 
Heartbeat CPU 0 instructions: 1540000001 cycles: 1151254535 heartbeat IPC: 0.891337 cumulative IPC: 1.01382 (Simulation time: 2 hr 12 min 44 sec) 
Heartbeat CPU 0 instructions: 1550000004 cycles: 1162297844 heartbeat IPC: 0.905526 cumulative IPC: 1.01267 (Simulation time: 2 hr 13 min 38 sec) 
Heartbeat CPU 0 instructions: 1560000004 cycles: 1173205377 heartbeat IPC: 0.916798 cumulative IPC: 1.01167 (Simulation time: 2 hr 14 min 29 sec) 
Heartbeat CPU 0 instructions: 1570000004 cycles: 1184249278 heartbeat IPC: 0.905477 cumulative IPC: 1.01056 (Simulation time: 2 hr 15 min 22 sec) 
Heartbeat CPU 0 instructions: 1580000001 cycles: 1196042235 heartbeat IPC: 0.847964 cumulative IPC: 1.00877 (Simulation time: 2 hr 16 min 8 sec) 
Heartbeat CPU 0 instructions: 1590000004 cycles: 1208545770 heartbeat IPC: 0.799774 cumulative IPC: 1.00636 (Simulation time: 2 hr 17 min 2 sec) 
Heartbeat CPU 0 instructions: 1600000001 cycles: 1221546165 heartbeat IPC: 0.769207 cumulative IPC: 1.00354 (Simulation time: 2 hr 17 min 47 sec) 
Heartbeat CPU 0 instructions: 1610000000 cycles: 1231955289 heartbeat IPC: 0.960696 cumulative IPC: 1.00314 (Simulation time: 2 hr 18 min 52 sec) 
Heartbeat CPU 0 instructions: 1620000004 cycles: 1240744322 heartbeat IPC: 1.13778 cumulative IPC: 1.0042 (Simulation time: 2 hr 19 min 43 sec) 
Heartbeat CPU 0 instructions: 1630000003 cycles: 1249440062 heartbeat IPC: 1.14999 cumulative IPC: 1.00533 (Simulation time: 2 hr 20 min 30 sec) 
Heartbeat CPU 0 instructions: 1640000000 cycles: 1259725645 heartbeat IPC: 0.972234 cumulative IPC: 1.00503 (Simulation time: 2 hr 21 min 37 sec) 
Heartbeat CPU 0 instructions: 1650000004 cycles: 1271512556 heartbeat IPC: 0.848399 cumulative IPC: 1.00342 (Simulation time: 2 hr 22 min 31 sec) 
Heartbeat CPU 0 instructions: 1660000000 cycles: 1283280092 heartbeat IPC: 0.849795 cumulative IPC: 1.00186 (Simulation time: 2 hr 23 min 21 sec) 
Heartbeat CPU 0 instructions: 1670000003 cycles: 1293803307 heartbeat IPC: 0.95028 cumulative IPC: 1.00139 (Simulation time: 2 hr 24 min 23 sec) 
Heartbeat CPU 0 instructions: 1680000000 cycles: 1304492623 heartbeat IPC: 0.935513 cumulative IPC: 1.0008 (Simulation time: 2 hr 25 min 14 sec) 
Heartbeat CPU 0 instructions: 1690000003 cycles: 1318950058 heartbeat IPC: 0.691686 cumulative IPC: 0.997052 (Simulation time: 2 hr 26 min 56 sec) 
Heartbeat CPU 0 instructions: 1700000002 cycles: 1333839753 heartbeat IPC: 0.671605 cumulative IPC: 0.993042 (Simulation time: 2 hr 28 min 36 sec) 
Heartbeat CPU 0 instructions: 1710000003 cycles: 1348604340 heartbeat IPC: 0.677296 cumulative IPC: 0.98923 (Simulation time: 2 hr 29 min 41 sec) 
Heartbeat CPU 0 instructions: 1720000000 cycles: 1363497107 heartbeat IPC: 0.671467 cumulative IPC: 0.985408 (Simulation time: 2 hr 31 min 4 sec) 
Heartbeat CPU 0 instructions: 1730000001 cycles: 1377603242 heartbeat IPC: 0.708911 cumulative IPC: 0.982293 (Simulation time: 2 hr 32 min 18 sec) 
Heartbeat CPU 0 instructions: 1740000003 cycles: 1389769582 heartbeat IPC: 0.82194 cumulative IPC: 0.98075 (Simulation time: 2 hr 33 min 27 sec) 
Heartbeat CPU 0 instructions: 1750000003 cycles: 1399241984 heartbeat IPC: 1.0557 cumulative IPC: 0.981308 (Simulation time: 2 hr 34 min 31 sec) 
Heartbeat CPU 0 instructions: 1760000000 cycles: 1410720953 heartbeat IPC: 0.871158 cumulative IPC: 0.980324 (Simulation time: 2 hr 35 min 36 sec) 
Heartbeat CPU 0 instructions: 1770000001 cycles: 1421134012 heartbeat IPC: 0.960333 cumulative IPC: 0.980163 (Simulation time: 2 hr 36 min 28 sec) 
Heartbeat CPU 0 instructions: 1780000000 cycles: 1433763313 heartbeat IPC: 0.791809 cumulative IPC: 0.978345 (Simulation time: 2 hr 37 min 35 sec) 
Heartbeat CPU 0 instructions: 1790000004 cycles: 1445918178 heartbeat IPC: 0.822716 cumulative IPC: 0.976912 (Simulation time: 2 hr 38 min 39 sec) 
Heartbeat CPU 0 instructions: 1800000001 cycles: 1456939014 heartbeat IPC: 0.907372 cumulative IPC: 0.976337 (Simulation time: 2 hr 39 min 43 sec) 
Heartbeat CPU 0 instructions: 1810000002 cycles: 1468150962 heartbeat IPC: 0.891906 cumulative IPC: 0.975632 (Simulation time: 2 hr 40 min 41 sec) 
Heartbeat CPU 0 instructions: 1820000000 cycles: 1478513158 heartbeat IPC: 0.965046 cumulative IPC: 0.975551 (Simulation time: 2 hr 41 min 16 sec) 
Heartbeat CPU 0 instructions: 1830000001 cycles: 1488777293 heartbeat IPC: 0.974266 cumulative IPC: 0.975541 (Simulation time: 2 hr 41 min 51 sec) 
Heartbeat CPU 0 instructions: 1840000000 cycles: 1500550291 heartbeat IPC: 0.849401 cumulative IPC: 0.974461 (Simulation time: 2 hr 42 min 28 sec) 
Heartbeat CPU 0 instructions: 1850000002 cycles: 1513107852 heartbeat IPC: 0.796333 cumulative IPC: 0.972849 (Simulation time: 2 hr 43 min 6 sec) 
Heartbeat CPU 0 instructions: 1860000001 cycles: 1525944590 heartbeat IPC: 0.779014 cumulative IPC: 0.971073 (Simulation time: 2 hr 43 min 45 sec) 
Heartbeat CPU 0 instructions: 1870000002 cycles: 1538221180 heartbeat IPC: 0.814559 cumulative IPC: 0.969712 (Simulation time: 2 hr 44 min 23 sec) 
Heartbeat CPU 0 instructions: 1880000003 cycles: 1550541108 heartbeat IPC: 0.811693 cumulative IPC: 0.968346 (Simulation time: 2 hr 45 min 1 sec) 
Heartbeat CPU 0 instructions: 1890000004 cycles: 1562648315 heartbeat IPC: 0.825954 cumulative IPC: 0.967147 (Simulation time: 2 hr 45 min 39 sec) 
Heartbeat CPU 0 instructions: 1900000000 cycles: 1571377778 heartbeat IPC: 1.14555 cumulative IPC: 0.968224 (Simulation time: 2 hr 46 min 12 sec) 
Heartbeat CPU 0 instructions: 1910000004 cycles: 1579973079 heartbeat IPC: 1.16343 cumulative IPC: 0.969377 (Simulation time: 2 hr 46 min 45 sec) 
Heartbeat CPU 0 instructions: 1920000004 cycles: 1589238465 heartbeat IPC: 1.07929 cumulative IPC: 0.970073 (Simulation time: 2 hr 47 min 21 sec) 
Heartbeat CPU 0 instructions: 1930000000 cycles: 1598613266 heartbeat IPC: 1.06669 cumulative IPC: 0.970688 (Simulation time: 2 hr 48 min 11 sec) 
Heartbeat CPU 0 instructions: 1940000000 cycles: 1610034622 heartbeat IPC: 0.875553 cumulative IPC: 0.969956 (Simulation time: 2 hr 48 min 49 sec) 
Heartbeat CPU 0 instructions: 1950000000 cycles: 1618355555 heartbeat IPC: 1.20179 cumulative IPC: 0.971248 (Simulation time: 2 hr 49 min 23 sec) 
Heartbeat CPU 0 instructions: 1960000001 cycles: 1627748472 heartbeat IPC: 1.06463 cumulative IPC: 0.971832 (Simulation time: 2 hr 49 min 57 sec) 
Heartbeat CPU 0 instructions: 1970000004 cycles: 1638502683 heartbeat IPC: 0.929869 cumulative IPC: 0.971534 (Simulation time: 2 hr 50 min 33 sec) 
Heartbeat CPU 0 instructions: 1980000001 cycles: 1650158242 heartbeat IPC: 0.857959 cumulative IPC: 0.970666 (Simulation time: 2 hr 51 min 9 sec) 
Heartbeat CPU 0 instructions: 1990000000 cycles: 1662054855 heartbeat IPC: 0.840575 cumulative IPC: 0.969658 (Simulation time: 2 hr 51 min 46 sec) 
*** Reached end of trace: traces/657.xz_s-2302B.champsimtrace.xz
Heartbeat CPU 0 instructions: 2000000002 cycles: 1674188042 heartbeat IPC: 0.824186 cumulative IPC: 0.968519 (Simulation time: 2 hr 52 min 23 sec) 
Finished CPU 0 instructions: 1500000000 cycles: 1548756745 cumulative IPC: 0.968519 (Simulation time: 2 hr 52 min 23 sec) 

ChampSim completed all CPUs

Region of Interest Statistics

CPU 0 cumulative IPC: 0.968519 instructions: 1500000000 cycles: 1548756745
cpu0_DTLB TOTAL     ACCESS:  286865695  HIT:  277327171  MISS:    9538524
cpu0_DTLB LOAD      ACCESS:  226954489  HIT:  219142187  MISS:    7812302
cpu0_DTLB RFO       ACCESS:   59911206  HIT:   58184984  MISS:    1726222
cpu0_DTLB PREFETCH  ACCESS:          0  HIT:          0  MISS:          0
cpu0_DTLB WRITEBACK ACCESS:          0  HIT:          0  MISS:          0
cpu0_DTLB TRANSLATION ACCESS:          0  HIT:          0  MISS:          0
cpu0_DTLB PREFETCH  REQUESTED:          0  ISSUED:          0  USEFUL:          0  USELESS:          0
cpu0_DTLB AVERAGE MISS LATENCY: 10.6121 cycles
cpu0_ITLB TOTAL     ACCESS:  142297586  HIT:  142297586  MISS:          0
cpu0_ITLB LOAD      ACCESS:  142297586  HIT:  142297586  MISS:          0
cpu0_ITLB RFO       ACCESS:          0  HIT:          0  MISS:          0
cpu0_ITLB PREFETCH  ACCESS:          0  HIT:          0  MISS:          0
cpu0_ITLB WRITEBACK ACCESS:          0  HIT:          0  MISS:          0
cpu0_ITLB TRANSLATION ACCESS:          0  HIT:          0  MISS:          0
cpu0_ITLB PREFETCH  REQUESTED:          0  ISSUED:          0  USEFUL:          0  USELESS:          0
cpu0_ITLB AVERAGE MISS LATENCY: -nan cycles
cpu0_L1I TOTAL     ACCESS:   23755392  HIT:   23753736  MISS:       1656
cpu0_L1I LOAD      ACCESS:   23755392  HIT:   23753736  MISS:       1656
cpu0_L1I RFO       ACCESS:          0  HIT:          0  MISS:          0
cpu0_L1I PREFETCH  ACCESS:          0  HIT:          0  MISS:          0
cpu0_L1I WRITEBACK ACCESS:          0  HIT:          0  MISS:          0
cpu0_L1I TRANSLATION ACCESS:          0  HIT:          0  MISS:          0
cpu0_L1I PREFETCH  REQUESTED:          0  ISSUED:          0  USEFUL:          0  USELESS:          0
cpu0_L1I AVERAGE MISS LATENCY: 110.444 cycles
cpu0_STLB TOTAL     ACCESS:    9538524  HIT:    7715115  MISS:    1823409
cpu0_STLB LOAD      ACCESS:    7812302  HIT:    6106457  MISS:    1705845
cpu0_STLB RFO       ACCESS:    1726222  HIT:    1608658  MISS:     117564
cpu0_STLB PREFETCH  ACCESS:          0  HIT:          0  MISS:          0
cpu0_STLB WRITEBACK ACCESS:          0  HIT:          0  MISS:          0
cpu0_STLB TRANSLATION ACCESS:          0  HIT:          0  MISS:          0
cpu0_STLB PREFETCH  REQUESTED:          0  ISSUED:          0  USEFUL:          0  USELESS:          0
cpu0_STLB AVERAGE MISS LATENCY: 8.39771 cycles
cpu0_L1D TOTAL     ACCESS:  306194130  HIT:  295578568  MISS:   10615562
cpu0_L1D LOAD      ACCESS:  201329246  HIT:  192159846  MISS:    9169400
cpu0_L1D RFO       ACCESS:  103046763  HIT:  101607875  MISS:    1438888
cpu0_L1D PREFETCH  ACCESS:          0  HIT:          0  MISS:          0
cpu0_L1D WRITEBACK ACCESS:          0  HIT:          0  MISS:          0
cpu0_L1D TRANSLATION ACCESS:    1818121  HIT:    1810847  MISS:       7274
cpu0_L1D PREFETCH  REQUESTED:          0  ISSUED:          0  USEFUL:          0  USELESS:          0
cpu0_L1D AVERAGE MISS LATENCY: 77.3227 cycles
cpu0_L2C TOTAL     ACCESS:   17614251  HIT:   11701724  MISS:    5912527
cpu0_L2C LOAD      ACCESS:    9170983  HIT:    3855693  MISS:    5315290
cpu0_L2C RFO       ACCESS:    1438355  HIT:     854793  MISS:     583562
cpu0_L2C PREFETCH  ACCESS:          0  HIT:          0  MISS:          0
cpu0_L2C WRITEBACK ACCESS:    6997639  HIT:    6985088  MISS:      12551
cpu0_L2C TRANSLATION ACCESS:       7274  HIT:       6150  MISS:       1124
cpu0_L2C PREFETCH  REQUESTED:          0  ISSUED:          0  USEFUL:          0  USELESS:          0
cpu0_L2C AVERAGE MISS LATENCY: 119.062 cycles
LLC TOTAL     ACCESS:   10007983  HIT:    6697389  MISS:    3310594
LLC LOAD      ACCESS:    5315287  HIT:    2359948  MISS:    2955339
LLC RFO       ACCESS:     583530  HIT:     247465  MISS:     336065
LLC PREFETCH  ACCESS:          0  HIT:          0  MISS:          0
LLC WRITEBACK ACCESS:    4108042  HIT:    4089113  MISS:      18929
LLC TRANSLATION ACCESS:       1124  HIT:        863  MISS:        261
LLC PREFETCH  REQUESTED:          0  ISSUED:          0  USEFUL:          0  USELESS:          0
LLC AVERAGE MISS LATENCY: 175.213 cycles
~~~~~~~~~~Reuse Distance Profiler output~~~~~~~~~~
0	44408784	13068240
1	62330576	43925984
2	35177088	23961248
3	29547232	19781344
4	23201712	15772416
5	19763504	12368192
6	14307648	10442704
7	10614400	7322432
8	8928000	6341936
9	7790752	5512896
10	7551520	5831296
11	6131280	4364384
12	5340576	3614720
13	4843168	3338272
14	4679824	3312832
15	4470640	2989360
16	3588000	2187584
17	2942752	1901696
18	3081136	1818864
19	2712960	1783744
20	2217872	1331440
21	1971824	1176192
22	1915088	1126544
23	1923696	1321264
24	1764768	1208880
25	1539280	948240
26	1260048	740112
27	1529424	896480
28	1328640	855424
29	1112272	662176
30	1044080	542672
31	938688	524640
32	976304	532544
33	1027488	688368
34	960832	558128
35	1010272	685680
36	809168	506544
37	743696	469120
38	727328	466880
39	792448	523312
40	711456	433712
41	658640	389120
42	655200	427472
43	643264	418304
44	629408	421456
45	585424	404016
46	634144	456560
47	610848	435376
48	552944	388272
49	578384	423104
50	519184	372832
51	505696	358624
52	503040	354960
53	553392	385120
54	571536	413296
55	508736	345424
56	493600	323488
57	490560	318960
58	492448	317152
59	526480	354176
60	503936	323376
61	488752	307056
62	479584	294416
63	485600	294832
64	986704	596032
66	941680	551664
68	1012704	615600
70	945584	542256
72	884512	506976
74	885968	530672
76	813872	487056
78	829632	529648
80	740096	479344
82	709472	473568
84	737360	508400
86	690720	463056
88	704928	490992
90	635504	454448
92	643904	433760
94	621808	458208
96	555648	417744
98	579360	448768
100	537920	412672
102	525936	405360
104	555040	437360
106	516640	404544
108	533968	428256
110	502688	402848
112	494272	394464
114	524784	423344
116	462176	364208
118	467200	372560
120	430976	345152
122	407472	327984
124	409232	333120
126	375456	302240
128	774384	625168
132	742288	611696
136	714320	590896
140	654672	542384
144	644752	534352
148	631744	513760
152	589328	474688
156	561664	449632
160	515232	405280
164	503776	394272
168	485776	380336
172	464896	367792
176	451952	356032
180	422608	325504
184	425232	328512
188	418000	320512
192	411200	313424
196	405072	307616
200	387488	292672
204	398864	300832
208	401152	297888
212	406304	303984
216	400256	298016
220	390848	286944
224	407520	306432
228	401104	301008
232	406464	306464
236	406416	306496
240	390880	290896
244	406368	304176
248	403984	302896
252	403984	306112
256	789152	597200
264	786944	606032
272	797152	623088
280	795168	624592
288	803040	643712
296	787088	637280
304	789616	655568
312	787888	658768
320	765744	644784
328	761792	652560
336	739072	636896
344	737648	645424
352	718240	633952
360	688240	610736
368	675344	603920
376	650704	584784
384	633696	571008
392	605024	547296
400	571360	520000
408	552032	503536
416	517120	470368
424	491136	447584
432	451584	412624
440	416352	380368
448	384800	351552
456	353920	323952
464	322208	295024
472	291488	266160
480	265056	243072
488	241952	221440
496	218800	200208
504	198928	181520
512	340688	309056
528	283552	254320
544	232640	206832
560	196032	173744
576	167856	147120
592	147616	128064
608	128320	110384
624	116064	99168
640	109312	93008
656	103120	88208
672	96688	82848
688	95216	80688
704	94448	80256
720	94048	80208
736	89776	75744
752	85104	72000
768	84176	71856
784	80432	67648
800	81696	68000
816	78496	66512
832	74880	63216
848	73616	62608
864	76192	64432
880	71504	60064
896	72496	60784
912	70464	59008
928	67728	56384
944	67984	56608
960	65040	54048
976	65200	54208
992	65200	53904
1008	64528	53808
1024	129024	107232
1056	125856	104880
1088	125392	103872
1120	127024	105824
1152	127776	106672
1184	130688	109248
1216	127488	106496
1248	127072	107248
1280	126576	104992
1312	125360	105424
1344	125536	104816
1376	120528	100672
1408	119728	99440
1440	118160	97280
1472	118432	96736
1504	114560	94752
1536	112768	91984
1568	112352	91360
1600	107120	86416
1632	106704	86144
1664	102608	82224
1696	101776	80608
1728	97008	76560
1760	93952	73888
1792	93456	73056
1824	90272	69696
1856	84448	65408
1888	83408	65744
1920	83152	64176
1952	80480	61664
1984	75600	57648
2016	77264	58048
2048	149136	112912
2112	140928	104080
2176	136432	102400
2240	128160	96000
2304	121648	90720
2368	117424	87616
2432	112192	83344
2496	107008	79792
2560	105696	79296
2624	102784	76160
2688	97856	74400
2752	95904	73088
2816	90880	69408
2880	90432	67840
2944	87520	66288
3008	82624	62992
3072	81744	62752
3136	81088	61344
3200	77216	59248
3264	74640	57184
3328	73520	56224
3392	73584	55872
3456	68640	52432
3520	69920	53104
3584	67984	51760
3648	67008	51696
3712	63152	48320
3776	63168	48928
3840	61584	47152
3904	62928	47904
3968	59472	45520
4032	59680	45888
4096	117936	90048
4224	110912	84928
4352	112208	85952
4480	109952	83744
4608	105888	81040
4736	102960	78560
4864	98544	74960
4992	98400	75168
5120	95888	72496
5248	94320	71664
5376	92832	71024
5504	89264	68160
5632	88080	67248
5760	87040	66656
5888	86352	65408
6016	85280	65104
6144	83824	63376
6272	81024	62560
6400	79168	60576
6528	77008	59184
6656	74400	56736
6784	75664	58256
6912	71936	54528
7040	70064	53040
7168	68832	52720
7296	67856	52352
7424	65344	49712
7552	63152	48384
7680	61696	47248
7808	60320	45808
7936	57168	42960
8064	56848	43040
8192	105696	78624
8448	100976	76080
8704	93024	70544
8960	92736	70448
9216	88208	67056
9472	86144	64720
9728	84912	63488
9984	86080	65440
10240	86528	64672
10496	86192	66320
10752	72320	55936
11008	71456	55216
11264	66608	51616
11520	65504	51152
11776	64128	49360
12032	62096	48336
12288	63152	48176
12544	59984	46112
12800	57408	43664
13056	58432	44752
13312	54864	41952
13568	54848	41584
13824	55488	42528
14080	51776	40144
14336	52272	40864
14592	50480	39504
14848	48704	37088
15104	47408	36496
15360	48160	37600
15616	48720	37696
15872	45760	35856
16128	45312	34752
16384	87984	68048
16896	86224	66960
17408	81136	62304
17920	78752	61344
18432	74656	58656
18944	72816	57056
19456	69856	55936
19968	67696	52688
20480	66000	51920
20992	65968	51648
21504	63504	49696
22016	63232	49984
22528	61984	48272
23040	58976	46224
23552	58784	46192
24064	55840	44320
24576	53376	41792
25088	53104	41424
25600	50720	40032
26112	50176	39648
26624	49008	38608
27136	46912	36704
27648	44448	34704
28160	43024	33664
28672	42080	33584
29184	43136	33808
29696	41360	32240
30208	40560	32272
30720	37952	30000
31232	35488	28128
31744	38848	31040
32256	38320	29968
32768	68528	54544
33792	67152	53856
34816	63712	51072
35840	63472	51088
36864	58720	47040
37888	58432	46768
38912	56912	46352
39936	56720	45504
40960	55200	43920
41984	53024	42592
43008	54064	43824
44032	51472	41104
45056	51296	40480
46080	51008	40496
47104	50560	39904
48128	49392	39536
49152	49120	38800
50176	47024	37296
51200	43440	35072
52224	41984	33936
53248	40672	33744
54272	41856	34352
55296	37312	30864
56320	39424	32048
57344	37104	30640
58368	36032	30208
59392	34496	28528
60416	34816	28592
61440	32032	26208
62464	32224	26512
63488	31616	26368
64512	31472	26000
65536	61472	50464
67584	57824	47968
69632	56832	47552
71680	53392	44672
73728	53392	44432
75776	52448	43152
77824	50688	41808
79872	50352	42096
81920	49728	41440
83968	47312	39488
86016	43248	36480
88064	45072	37728
90112	43008	35808
92160	43360	36000
94208	42800	35760
96256	39264	32496
98304	39008	33392
100352	38368	32016
102400	38592	32576
104448	37472	31040
106496	38448	32176
108544	37376	31936
110592	35248	29648
112640	34432	28608
114688	33632	27952
116736	33024	28256
118784	31936	27040
120832	32304	27056
122880	30512	26016
124928	31840	26448
126976	30736	26416
129024	31024	26080
131072	61008	52800
135168	57680	48464
139264	57824	49312
143360	53840	46080
147456	55120	47008
151552	51168	44096
155648	47360	40240
159744	48624	41968
163840	46768	40032
167936	46032	39904
172032	43712	37472
176128	43360	36704
180224	43696	37264
184320	43024	36848
188416	42576	36720
192512	58848	36384
196608	42352	35888
200704	39392	34320
204800	38672	33984
208896	38016	33200
212992	37744	32464
217088	36512	31936
221184	36784	32304
225280	34240	29488
229376	33808	29632
233472	31408	27488
237568	33376	29136
241664	31568	27536
245760	30976	26944
249856	30672	27008
253952	29584	25712
258048	29712	26064
262144	56976	49952
270336	56544	50096
278528	53872	47056
286720	51968	45408
294912	50768	44976
303104	48656	42976
311296	47840	41808
319488	53072	46640
327680	49152	43568
335872	43536	38608
344064	43872	38624
352256	41264	36576
360448	41120	36640
368640	40656	36256
376832	39744	35040
385024	38576	34976
393216	35264	31824
401408	35632	31584
409600	36688	32704
417792	33968	30640
425984	33120	29408
434176	33824	30032
442368	33440	29888
450560	31472	28480
458752	33376	30224
466944	30992	28016
475136	30144	27472
483328	30336	27152
491520	30224	27024
499712	27824	24816
507904	27632	25392
516096	28720	26096
524288	53984	49104
540672	50480	46208
557056	50336	45776
573440	49824	45792
589824	47680	44032
606208	47696	44144
622592	44432	40672
638976	44432	40896
655360	42160	39136
671744	39872	37216
688128	40896	38688
704512	39872	37600
720896	37456	34768
737280	38240	35744
753664	35968	33520
770048	35360	33008
786432	33664	31616
802816	34816	32592
819200	34912	32912
835584	32272	30480
851968	31120	28896
868352	32288	30224
884736	31280	29424
901120	30368	28624
917504	28960	27408
933888	29952	27888
950272	28224	26368
966656	26736	25008
983040	27840	26224
999424	26640	25264
1015808	25696	24064
1032192	24416	23232
1048576	48080	45632
1081344	50192	47312
1114112	47280	44928
1146880	45008	42496
1179648	42160	39712
1212416	40976	38880
1245184	43520	41040
1277952	38208	36240
1310720	36928	35328
1343488	36208	34240
1376256	37520	35696
1409024	38352	36880
1441792	34624	32928
1474560	35120	33520
1507328	34640	32800
1540096	30576	29248
1572864	31328	29776
1605632	31216	29744
1638400	30768	28816
1671168	28784	27504
1703936	31056	29488
1736704	29072	27728
1769472	26672	25584
1802240	26208	25344
1835008	27712	26320
1867776	27440	26480
1900544	26320	25200
1933312	25680	24432
1966080	23744	23008
1998848	23296	22448
2031616	23728	22976
2064384	22368	21600
2097152	45808	44192
2162688	43520	42080
2228224	42384	40848
2293760	38384	37088
2359296	35424	34272
2424832	37968	36592
2490368	34080	32944
2555904	32848	31584
2621440	32176	31216
2686976	30640	29824
2752512	32416	31424
2818048	30720	29520
2883584	29856	28848
2949120	30880	29552
3014656	28624	27296
3080192	28352	27200
3145728	29168	27392
3211264	27632	26256
3276800	25408	24352
3342336	23744	22848
3407872	24976	23984
3473408	21792	21088
3538944	25584	24480
3604480	22016	21520
3670016	20832	20208
3735552	23808	22880
3801088	21424	20752
3866624	18960	18352
3932160	19168	18624
3997696	18640	17984
4063232	18160	17712
4128768	18416	17904
4194304	38816	37296
4325376	34832	33616
4456448	32704	31920
4587520	30432	29680
4718592	29376	28656
4849664	31872	30368
4980736	27328	26736
5111808	26352	25632
5242880	25328	24656
5373952	24576	24016
5505024	23296	22512
5636096	23632	22992
5767168	23920	23152
5898240	22128	21424
6029312	20624	20208
6160384	19904	19552
6291456	20960	20416
6422528	20352	19952
6553600	19520	19168
6684672	18144	17760
6815744	17680	17136
6946816	17232	16848
7077888	16208	15952
7208960	16896	16448
7340032	16176	15808
7471104	15648	15392
7602176	18592	17744
7733248	14992	14736
7864320	15312	14864
7995392	14640	14080
8126464	15968	15520
8257536	15296	14912
8388608	27120	26480
8650752	26240	25616
8912896	27344	26768
9175040	25744	25216
9437184	25360	24816
9699328	24016	23680
9961472	23248	22880
10223616	21760	21184
10485760	23792	23344
10747904	22432	22048
11010048	21136	20608
11272192	20608	20256
11534336	19248	18992
11796480	19088	18496
12058624	16816	16544
12320768	17632	17296
12582912	15552	15344
12845056	16128	15952
13107200	15584	15328
13369344	15856	15520
13631488	14144	13968
13893632	16288	15952
14155776	14880	14656
14417920	14096	13968
14680064	13984	13760
14942208	13504	13232
15204352	11920	11824
15466496	11952	11696
15728640	10528	10400
15990784	10656	10560
16252928	10864	10768
16515072	10544	10304
16777216	19168	18848
17301504	18512	18384
17825792	17344	17136
18350080	16768	16640
18874368	16432	16112
19398656	15744	15552
19922944	15072	14800
20447232	15360	14912
20971520	14752	14608
21495808	14144	13760
22020096	12336	12048
22544384	11904	11728
23068672	11184	10992
23592960	10768	10336
24117248	10320	10112
24641536	9792	9680
25165824	10800	10480
25690112	10832	10752
26214400	9488	9280
26738688	10400	10000
27262976	9600	9280
27787264	8288	8192
28311552	9040	8624
28835840	9088	8928
29360128	8128	8032
29884416	7536	7200
30408704	7120	6848
30932992	7328	7232
31457280	6480	6336
31981568	7296	6976
32505856	7008	6896
33030144	7376	7184
33554432	13968	13536
34603008	14032	13472
35651584	12320	12000
36700160	12096	11552
37748736	10256	9872
38797312	10224	9792
39845888	10160	9520
40894464	10176	9568
41943040	10288	9760
42991616	9968	9488
44040192	9152	8816
45088768	9712	9440
46137344	8864	8560
47185920	6688	6528
48234496	6960	6624
49283072	6928	6784
50331648	7184	6864
51380224	6480	6128
52428800	6384	6032
53477376	6368	6080
54525952	5968	5760
55574528	5712	5456
56623104	5280	4976
57671680	5376	4576
58720256	5312	4512
59768832	5376	4416
60817408	4768	4464
61865984	5024	4480
62914560	4464	4064
63963136	3824	3280
65011712	4480	4112
66060288	4576	4368
67108864	9312	8800
69206016	7536	7072
71303168	6240	5728
73400320	6784	6304
75497472	5600	5248
77594624	5984	5616
79691776	5344	5056
81788928	4976	4656
83886080	4832	4528
85983232	5488	5248
88080384	7600	7376
90177536	6528	6208
92274688	5248	4832
94371840	5360	5024
96468992	5088	4656
98566144	4912	4576
100663296	4016	3680
102760448	3824	3616
104857600	3424	3104
106954752	3120	2784
109051904	3376	3088
111149056	2576	2176
113246208	2560	2240
115343360	2400	2224
117440512	2640	2208
119537664	2176	2016
121634816	2496	2272
123731968	1792	1664
125829120	2048	1936
127926272	3168	2832
130023424	3728	3408
132120576	5248	5008
134217728	9840	9408
138412032	10080	9472
142606336	8976	8720
146800640	7872	7456
150994944	7376	6944
155189248	6960	6560
159383552	6224	5536
163577856	5248	4848
167772160	5520	5184
171966464	4672	4112
176160768	3600	3216
180355072	3376	2992
184549376	3616	3280
188743680	3312	2816
192937984	3328	2928
197132288	2896	2528
201326592	3120	2592
205520896	3520	3152
209715200	3024	2576
213909504	2384	2160
218103808	1792	1456
222298112	1456	1040
226492416	1632	1328
230686720	1648	1408
234881024	1440	1152
239075328	1488	1072
243269632	1152	816
247463936	1424	1072
251658240	1088	976
255852544	1072	784
260046848	848	576
264241152	848	496
268435456	3680	2576
276824064	2960	1968
285212672	3808	2176
293601280	3984	1776
301989888	4784	3632
310378496	3104	1680
318767104	3216	1728
327155712	2864	1520
335544320	3376	1920
343932928	944	880
352321536	960	896
360710144	976	832
369098752	816	736
377487360	256	208
385875968	224	176
394264576	256	192
402653184	240	192
411041792	128	128
419430400	16	16
427819008	0	0
436207616	0	0
444596224	0	0
452984832	0	0
461373440	0	0
469762048	0	0
478150656	0	0
486539264	0	0
494927872	0	0
503316480	0	0
511705088	0	0
520093696	0	0
528482304	0	0
536870912	0	0
553648128	0	0
570425344	0	0
587202560	0	0
603979776	0	0
620756992	0	0
637534208	0	0
654311424	0	0
671088640	0	0
687865856	0	0
704643072	0	0
721420288	0	0
738197504	0	0
754974720	0	0
771751936	0	0
788529152	0	0
805306368	0	0
822083584	0	0
838860800	0	0
855638016	0	0
872415232	0	0
889192448	0	0
905969664	0	0
922746880	0	0
939524096	0	0
956301312	0	0
973078528	0	0
989855744	0	0
1006632960	0	0
1023410176	0	0
1040187392	0	0
1056964608	0	0
1073741824	0	0
1107296256	0	0
1140850688	0	0
1174405120	0	0
1207959552	0	0
1241513984	0	0
1275068416	0	0
1308622848	0	0
1342177280	0	0
1375731712	0	0
1409286144	0	0
1442840576	0	0
1476395008	0	0
1509949440	0	0
1543503872	0	0
1577058304	0	0
1610612736	0	0
1644167168	0	0
1677721600	0	0
1711276032	0	0
1744830464	0	0
1778384896	0	0
1811939328	0	0
1845493760	0	0
1879048192	0	0
1912602624	0	0
1946157056	0	0
1979711488	0	0
2013265920	0	0
2046820352	0	0
2080374784	0	0
2113929216	0	0
2147483648	0	0
2214592512	0	0
2281701376	0	0
2348810240	0	0
2415919104	0	0
2483027968	0	0
2550136832	0	0
2617245696	0	0
2684354560	0	0
2751463424	0	0
2818572288	0	0
2885681152	0	0
2952790016	0	0
3019898880	0	0
3087007744	0	0
3154116608	0	0
3221225472	0	0
3288334336	0	0
3355443200	0	0
3422552064	0	0
3489660928	0	0
3556769792	0	0
3623878656	0	0
3690987520	0	0
3758096384	0	0
3825205248	0	0
3892314112	0	0
3959422976	0	0
4026531840	0	0
4093640704	0	0
4160749568	0	0
4227858432	0	0
~~~~~~~~~~Reuse Distance Profiler output end~~~~~~~~~~

DRAM Statistics
 CHANNEL 0
 RQ ROW_BUFFER_HIT:      23166  ROW_BUFFER_MISS:    3268313
 DBUS AVG_CONGESTED_CYCLE:    3.84937
 WQ ROW_BUFFER_HIT:     661268  ROW_BUFFER_MISS:    1822409  FULL:          0


CPU 0 Branch Prediction Accuracy: 85.2501% MPKI: 20.4911 Average ROB Occupancy at Mispredict: 29.2437
Branch type MPKI
BRANCH_DIRECT_JUMP: 6.66667e-07
BRANCH_INDIRECT: 0.827603
BRANCH_CONDITIONAL: 19.6617
BRANCH_DIRECT_CALL: 0
BRANCH_INDIRECT_CALL: 0.00180933
BRANCH_RETURN: 0

