
*** ChampSim Multicore Out-of-Order Simulator ***

Warmup Instructions: 500000000
Simulation Instructions: 1500000000
Number of CPUs: 1
Off-chip DRAM Size: 4 GiB Channels: 1 Width: 64-bit Data Rate: 3200 MT/s

VirtualMemory physical capacity: 8588881920 num_ppages: 2096895
VirtualMemory page size: 4096 log2_page_size: 12

CPU 0 runs traces/657.xz_s-3167B.champsimtrace.xz
CPU 0 Bimodal branch predictor
Basic BTB sets: 1024 ways: 8 indirect buffer size: 4096 RAS size: 64
Initializing LRU.
Initializing LRU.
Initializing LRU.
Initializing LRU.
Initializing rdLRU.
Initializing LRU.
Initializing LRU.
Heartbeat CPU 0 instructions: 10000000 cycles: 2511765 heartbeat IPC: 3.98126 cumulative IPC: 3.98126 (Simulation time: 0 hr 0 min 50 sec) 
Heartbeat CPU 0 instructions: 20000003 cycles: 5023719 heartbeat IPC: 3.98097 cumulative IPC: 3.98112 (Simulation time: 0 hr 1 min 41 sec) 
Heartbeat CPU 0 instructions: 30000001 cycles: 7529692 heartbeat IPC: 3.99047 cumulative IPC: 3.98423 (Simulation time: 0 hr 2 min 33 sec) 
Heartbeat CPU 0 instructions: 40000002 cycles: 10035667 heartbeat IPC: 3.99046 cumulative IPC: 3.98578 (Simulation time: 0 hr 3 min 25 sec) 
Heartbeat CPU 0 instructions: 50000002 cycles: 12541671 heartbeat IPC: 3.99042 cumulative IPC: 3.98671 (Simulation time: 0 hr 4 min 16 sec) 
Heartbeat CPU 0 instructions: 60000003 cycles: 15050688 heartbeat IPC: 3.98563 cumulative IPC: 3.98653 (Simulation time: 0 hr 5 min 8 sec) 
Heartbeat CPU 0 instructions: 70000002 cycles: 17556690 heartbeat IPC: 3.99042 cumulative IPC: 3.98708 (Simulation time: 0 hr 5 min 59 sec) 
Heartbeat CPU 0 instructions: 80000001 cycles: 20065667 heartbeat IPC: 3.98569 cumulative IPC: 3.98691 (Simulation time: 0 hr 6 min 49 sec) 
Heartbeat CPU 0 instructions: 90000001 cycles: 22571646 heartbeat IPC: 3.99046 cumulative IPC: 3.9873 (Simulation time: 0 hr 7 min 39 sec) 
Heartbeat CPU 0 instructions: 100000002 cycles: 25080607 heartbeat IPC: 3.98571 cumulative IPC: 3.98714 (Simulation time: 0 hr 8 min 32 sec) 
Heartbeat CPU 0 instructions: 110000002 cycles: 27589549 heartbeat IPC: 3.98574 cumulative IPC: 3.98702 (Simulation time: 0 hr 9 min 24 sec) 
Heartbeat CPU 0 instructions: 120000000 cycles: 30098660 heartbeat IPC: 3.98547 cumulative IPC: 3.98689 (Simulation time: 0 hr 10 min 12 sec) 
Heartbeat CPU 0 instructions: 130000001 cycles: 32607651 heartbeat IPC: 3.98567 cumulative IPC: 3.98679 (Simulation time: 0 hr 11 min 7 sec) 
Heartbeat CPU 0 instructions: 140000002 cycles: 35116722 heartbeat IPC: 3.98554 cumulative IPC: 3.9867 (Simulation time: 0 hr 11 min 58 sec) 
Heartbeat CPU 0 instructions: 150000001 cycles: 37625701 heartbeat IPC: 3.98568 cumulative IPC: 3.98664 (Simulation time: 0 hr 12 min 48 sec) 
Heartbeat CPU 0 instructions: 160000003 cycles: 40134858 heartbeat IPC: 3.9854 cumulative IPC: 3.98656 (Simulation time: 0 hr 13 min 39 sec) 
Heartbeat CPU 0 instructions: 170000001 cycles: 42644329 heartbeat IPC: 3.9849 cumulative IPC: 3.98646 (Simulation time: 0 hr 14 min 31 sec) 
Heartbeat CPU 0 instructions: 180000000 cycles: 45151085 heartbeat IPC: 3.98922 cumulative IPC: 3.98662 (Simulation time: 0 hr 15 min 23 sec) 
Heartbeat CPU 0 instructions: 190000000 cycles: 47657503 heartbeat IPC: 3.98976 cumulative IPC: 3.98678 (Simulation time: 0 hr 16 min 16 sec) 
Heartbeat CPU 0 instructions: 200000002 cycles: 50160502 heartbeat IPC: 3.99521 cumulative IPC: 3.9872 (Simulation time: 0 hr 17 min 11 sec) 
Heartbeat CPU 0 instructions: 210000000 cycles: 52663558 heartbeat IPC: 3.99512 cumulative IPC: 3.98758 (Simulation time: 0 hr 17 min 59 sec) 
Heartbeat CPU 0 instructions: 220000003 cycles: 55169966 heartbeat IPC: 3.98977 cumulative IPC: 3.98768 (Simulation time: 0 hr 18 min 51 sec) 
Heartbeat CPU 0 instructions: 230000002 cycles: 57691637 heartbeat IPC: 3.96562 cumulative IPC: 3.98671 (Simulation time: 0 hr 19 min 39 sec) 
Heartbeat CPU 0 instructions: 240000003 cycles: 60203746 heartbeat IPC: 3.98072 cumulative IPC: 3.98646 (Simulation time: 0 hr 20 min 29 sec) 
Heartbeat CPU 0 instructions: 250000000 cycles: 62709919 heartbeat IPC: 3.99015 cumulative IPC: 3.98661 (Simulation time: 0 hr 21 min 16 sec) 
Heartbeat CPU 0 instructions: 260000003 cycles: 65219524 heartbeat IPC: 3.98469 cumulative IPC: 3.98654 (Simulation time: 0 hr 22 min 7 sec) 
Heartbeat CPU 0 instructions: 270000003 cycles: 67729419 heartbeat IPC: 3.98423 cumulative IPC: 3.98645 (Simulation time: 0 hr 22 min 57 sec) 
Heartbeat CPU 0 instructions: 280000000 cycles: 70236275 heartbeat IPC: 3.98906 cumulative IPC: 3.98654 (Simulation time: 0 hr 23 min 47 sec) 
Heartbeat CPU 0 instructions: 290000001 cycles: 72754452 heartbeat IPC: 3.97113 cumulative IPC: 3.98601 (Simulation time: 0 hr 24 min 40 sec) 
Heartbeat CPU 0 instructions: 300000003 cycles: 75275504 heartbeat IPC: 3.9666 cumulative IPC: 3.98536 (Simulation time: 0 hr 25 min 31 sec) 
Heartbeat CPU 0 instructions: 310000000 cycles: 77781676 heartbeat IPC: 3.99015 cumulative IPC: 3.98551 (Simulation time: 0 hr 26 min 22 sec) 
Heartbeat CPU 0 instructions: 320000003 cycles: 80287649 heartbeat IPC: 3.99047 cumulative IPC: 3.98567 (Simulation time: 0 hr 27 min 12 sec) 
Heartbeat CPU 0 instructions: 330000000 cycles: 82797560 heartbeat IPC: 3.9842 cumulative IPC: 3.98562 (Simulation time: 0 hr 28 min 5 sec) 
Heartbeat CPU 0 instructions: 340000002 cycles: 85303628 heartbeat IPC: 3.99032 cumulative IPC: 3.98576 (Simulation time: 0 hr 28 min 59 sec) 
Heartbeat CPU 0 instructions: 350000003 cycles: 87809710 heartbeat IPC: 3.99029 cumulative IPC: 3.98589 (Simulation time: 0 hr 29 min 50 sec) 
Heartbeat CPU 0 instructions: 360000001 cycles: 90315674 heartbeat IPC: 3.99048 cumulative IPC: 3.98602 (Simulation time: 0 hr 30 min 38 sec) 
Heartbeat CPU 0 instructions: 370000001 cycles: 92824702 heartbeat IPC: 3.98561 cumulative IPC: 3.98601 (Simulation time: 0 hr 31 min 24 sec) 
Heartbeat CPU 0 instructions: 380000002 cycles: 95330835 heartbeat IPC: 3.99021 cumulative IPC: 3.98612 (Simulation time: 0 hr 32 min 13 sec) 
Heartbeat CPU 0 instructions: 390000002 cycles: 97840146 heartbeat IPC: 3.98516 cumulative IPC: 3.98609 (Simulation time: 0 hr 33 min 4 sec) 
Heartbeat CPU 0 instructions: 400000003 cycles: 100346682 heartbeat IPC: 3.98957 cumulative IPC: 3.98618 (Simulation time: 0 hr 33 min 56 sec) 
Heartbeat CPU 0 instructions: 410000003 cycles: 102852911 heartbeat IPC: 3.99006 cumulative IPC: 3.98628 (Simulation time: 0 hr 34 min 48 sec) 
Heartbeat CPU 0 instructions: 420000000 cycles: 105358950 heartbeat IPC: 3.99036 cumulative IPC: 3.98637 (Simulation time: 0 hr 35 min 34 sec) 
Heartbeat CPU 0 instructions: 430000003 cycles: 107864938 heartbeat IPC: 3.99044 cumulative IPC: 3.98647 (Simulation time: 0 hr 36 min 16 sec) 
Heartbeat CPU 0 instructions: 440000002 cycles: 110367924 heartbeat IPC: 3.99523 cumulative IPC: 3.98667 (Simulation time: 0 hr 37 min 4 sec) 
Heartbeat CPU 0 instructions: 450000003 cycles: 112871984 heartbeat IPC: 3.99352 cumulative IPC: 3.98682 (Simulation time: 0 hr 38 min 0 sec) 
Heartbeat CPU 0 instructions: 460000000 cycles: 115376888 heartbeat IPC: 3.99217 cumulative IPC: 3.98693 (Simulation time: 0 hr 38 min 47 sec) 
Heartbeat CPU 0 instructions: 470000003 cycles: 117883116 heartbeat IPC: 3.99006 cumulative IPC: 3.987 (Simulation time: 0 hr 39 min 33 sec) 
Heartbeat CPU 0 instructions: 480000002 cycles: 120393253 heartbeat IPC: 3.98385 cumulative IPC: 3.98693 (Simulation time: 0 hr 40 min 24 sec) 
Heartbeat CPU 0 instructions: 490000003 cycles: 122900338 heartbeat IPC: 3.9887 cumulative IPC: 3.98697 (Simulation time: 0 hr 41 min 11 sec) 
Heartbeat CPU 0 instructions: 500000001 cycles: 125409936 heartbeat IPC: 3.9847 cumulative IPC: 3.98692 (Simulation time: 0 hr 41 min 58 sec) 

Warmup complete CPU 0 instructions: 500000001 cycles: 125409936 (Simulation time: 0 hr 41 min 58 sec) 

Heartbeat CPU 0 instructions: 510000000 cycles: 139322501 heartbeat IPC: 0.718775 cumulative IPC: 0.718775 (Simulation time: 0 hr 44 min 21 sec) 
Heartbeat CPU 0 instructions: 520000002 cycles: 146802354 heartbeat IPC: 1.33692 cumulative IPC: 0.934911 (Simulation time: 0 hr 45 min 14 sec) 
Heartbeat CPU 0 instructions: 530000004 cycles: 153816344 heartbeat IPC: 1.42572 cumulative IPC: 1.0561 (Simulation time: 0 hr 46 min 0 sec) 
Heartbeat CPU 0 instructions: 540000000 cycles: 160700661 heartbeat IPC: 1.45258 cumulative IPC: 1.13344 (Simulation time: 0 hr 46 min 51 sec) 
Heartbeat CPU 0 instructions: 550000000 cycles: 169737099 heartbeat IPC: 1.10663 cumulative IPC: 1.12798 (Simulation time: 0 hr 47 min 41 sec) 
Heartbeat CPU 0 instructions: 560000003 cycles: 177010301 heartbeat IPC: 1.37491 cumulative IPC: 1.16278 (Simulation time: 0 hr 48 min 30 sec) 
Heartbeat CPU 0 instructions: 570000004 cycles: 184132146 heartbeat IPC: 1.40413 cumulative IPC: 1.19205 (Simulation time: 0 hr 49 min 25 sec) 
Heartbeat CPU 0 instructions: 580000001 cycles: 191250841 heartbeat IPC: 1.40475 cumulative IPC: 1.21505 (Simulation time: 0 hr 50 min 13 sec) 
Heartbeat CPU 0 instructions: 590000000 cycles: 198453305 heartbeat IPC: 1.38841 cumulative IPC: 1.23214 (Simulation time: 0 hr 50 min 59 sec) 
Heartbeat CPU 0 instructions: 600000004 cycles: 205730994 heartbeat IPC: 1.37406 cumulative IPC: 1.245 (Simulation time: 0 hr 51 min 53 sec) 
Heartbeat CPU 0 instructions: 610000004 cycles: 213116636 heartbeat IPC: 1.35398 cumulative IPC: 1.25418 (Simulation time: 0 hr 52 min 40 sec) 
Heartbeat CPU 0 instructions: 620000001 cycles: 219938789 heartbeat IPC: 1.46581 cumulative IPC: 1.26945 (Simulation time: 0 hr 53 min 23 sec) 
Heartbeat CPU 0 instructions: 630000001 cycles: 227145574 heartbeat IPC: 1.38758 cumulative IPC: 1.27782 (Simulation time: 0 hr 54 min 11 sec) 
Heartbeat CPU 0 instructions: 640000003 cycles: 234212299 heartbeat IPC: 1.41508 cumulative IPC: 1.28674 (Simulation time: 0 hr 55 min 3 sec) 
Heartbeat CPU 0 instructions: 650000001 cycles: 240416717 heartbeat IPC: 1.61175 cumulative IPC: 1.30427 (Simulation time: 0 hr 55 min 52 sec) 
Heartbeat CPU 0 instructions: 660000003 cycles: 247674828 heartbeat IPC: 1.37777 cumulative IPC: 1.30863 (Simulation time: 0 hr 56 min 43 sec) 
Heartbeat CPU 0 instructions: 670000004 cycles: 254931385 heartbeat IPC: 1.37806 cumulative IPC: 1.31252 (Simulation time: 0 hr 57 min 30 sec) 
Heartbeat CPU 0 instructions: 680000002 cycles: 261512726 heartbeat IPC: 1.51945 cumulative IPC: 1.32253 (Simulation time: 0 hr 58 min 19 sec) 
Heartbeat CPU 0 instructions: 690000003 cycles: 269462539 heartbeat IPC: 1.25789 cumulative IPC: 1.31896 (Simulation time: 0 hr 59 min 13 sec) 
Heartbeat CPU 0 instructions: 700000001 cycles: 276866765 heartbeat IPC: 1.35058 cumulative IPC: 1.32051 (Simulation time: 1 hr 0 min 4 sec) 
Heartbeat CPU 0 instructions: 710000000 cycles: 284693912 heartbeat IPC: 1.2776 cumulative IPC: 1.3184 (Simulation time: 1 hr 0 min 55 sec) 
Heartbeat CPU 0 instructions: 720000003 cycles: 292354665 heartbeat IPC: 1.30536 cumulative IPC: 1.3178 (Simulation time: 1 hr 1 min 38 sec) 
Heartbeat CPU 0 instructions: 730000004 cycles: 299650018 heartbeat IPC: 1.37074 cumulative IPC: 1.32002 (Simulation time: 1 hr 2 min 27 sec) 
Heartbeat CPU 0 instructions: 740000002 cycles: 307272657 heartbeat IPC: 1.31188 cumulative IPC: 1.31968 (Simulation time: 1 hr 3 min 19 sec) 
Heartbeat CPU 0 instructions: 750000003 cycles: 313398886 heartbeat IPC: 1.63233 cumulative IPC: 1.32987 (Simulation time: 1 hr 4 min 10 sec) 
Heartbeat CPU 0 instructions: 760000000 cycles: 319171801 heartbeat IPC: 1.73223 cumulative IPC: 1.34185 (Simulation time: 1 hr 4 min 58 sec) 
Heartbeat CPU 0 instructions: 770000002 cycles: 324977240 heartbeat IPC: 1.72252 cumulative IPC: 1.35293 (Simulation time: 1 hr 5 min 48 sec) 
Heartbeat CPU 0 instructions: 780000004 cycles: 330657286 heartbeat IPC: 1.76055 cumulative IPC: 1.36421 (Simulation time: 1 hr 6 min 36 sec) 
Heartbeat CPU 0 instructions: 790000004 cycles: 336519001 heartbeat IPC: 1.70599 cumulative IPC: 1.3737 (Simulation time: 1 hr 7 min 28 sec) 
Heartbeat CPU 0 instructions: 800000002 cycles: 342336434 heartbeat IPC: 1.71897 cumulative IPC: 1.38296 (Simulation time: 1 hr 8 min 20 sec) 
Heartbeat CPU 0 instructions: 810000001 cycles: 348200791 heartbeat IPC: 1.70522 cumulative IPC: 1.39144 (Simulation time: 1 hr 9 min 10 sec) 
Heartbeat CPU 0 instructions: 820000000 cycles: 353986419 heartbeat IPC: 1.72842 cumulative IPC: 1.39997 (Simulation time: 1 hr 9 min 50 sec) 
Heartbeat CPU 0 instructions: 830000000 cycles: 359904011 heartbeat IPC: 1.68988 cumulative IPC: 1.40728 (Simulation time: 1 hr 10 min 26 sec) 
Heartbeat CPU 0 instructions: 840000002 cycles: 365558081 heartbeat IPC: 1.76864 cumulative IPC: 1.41579 (Simulation time: 1 hr 11 min 1 sec) 
Heartbeat CPU 0 instructions: 850000004 cycles: 371555697 heartbeat IPC: 1.66733 cumulative IPC: 1.42192 (Simulation time: 1 hr 11 min 45 sec) 
Heartbeat CPU 0 instructions: 860000004 cycles: 377374264 heartbeat IPC: 1.71864 cumulative IPC: 1.42877 (Simulation time: 1 hr 12 min 17 sec) 
Heartbeat CPU 0 instructions: 870000000 cycles: 383273193 heartbeat IPC: 1.69522 cumulative IPC: 1.43487 (Simulation time: 1 hr 12 min 55 sec) 
Heartbeat CPU 0 instructions: 880000000 cycles: 389027506 heartbeat IPC: 1.73783 cumulative IPC: 1.44148 (Simulation time: 1 hr 13 min 45 sec) 
Heartbeat CPU 0 instructions: 890000003 cycles: 394726048 heartbeat IPC: 1.75484 cumulative IPC: 1.44811 (Simulation time: 1 hr 14 min 34 sec) 
Heartbeat CPU 0 instructions: 900000000 cycles: 400575561 heartbeat IPC: 1.70954 cumulative IPC: 1.45367 (Simulation time: 1 hr 15 min 21 sec) 
Heartbeat CPU 0 instructions: 910000004 cycles: 406338777 heartbeat IPC: 1.73514 cumulative IPC: 1.45944 (Simulation time: 1 hr 16 min 14 sec) 
Heartbeat CPU 0 instructions: 920000001 cycles: 412180098 heartbeat IPC: 1.71194 cumulative IPC: 1.46459 (Simulation time: 1 hr 16 min 59 sec) 
Heartbeat CPU 0 instructions: 930000001 cycles: 419141343 heartbeat IPC: 1.43652 cumulative IPC: 1.46392 (Simulation time: 1 hr 17 min 55 sec) 
Heartbeat CPU 0 instructions: 940000001 cycles: 426390160 heartbeat IPC: 1.37954 cumulative IPC: 1.46189 (Simulation time: 1 hr 18 min 47 sec) 
Heartbeat CPU 0 instructions: 950000002 cycles: 434562647 heartbeat IPC: 1.22362 cumulative IPC: 1.45559 (Simulation time: 1 hr 19 min 44 sec) 
Heartbeat CPU 0 instructions: 960000004 cycles: 440501541 heartbeat IPC: 1.68382 cumulative IPC: 1.45989 (Simulation time: 1 hr 20 min 39 sec) 
Heartbeat CPU 0 instructions: 970000001 cycles: 447154817 heartbeat IPC: 1.50302 cumulative IPC: 1.46078 (Simulation time: 1 hr 21 min 32 sec) 
Heartbeat CPU 0 instructions: 980000001 cycles: 455985301 heartbeat IPC: 1.13244 cumulative IPC: 1.45201 (Simulation time: 1 hr 22 min 20 sec) 
Heartbeat CPU 0 instructions: 990000000 cycles: 465300062 heartbeat IPC: 1.07356 cumulative IPC: 1.44164 (Simulation time: 1 hr 23 min 14 sec) 
Heartbeat CPU 0 instructions: 1000000000 cycles: 472801084 heartbeat IPC: 1.33315 cumulative IPC: 1.4393 (Simulation time: 1 hr 24 min 4 sec) 
Heartbeat CPU 0 instructions: 1010000004 cycles: 479616992 heartbeat IPC: 1.46716 cumulative IPC: 1.43984 (Simulation time: 1 hr 24 min 53 sec) 
Heartbeat CPU 0 instructions: 1020000000 cycles: 489442355 heartbeat IPC: 1.01777 cumulative IPC: 1.42844 (Simulation time: 1 hr 25 min 53 sec) 
Heartbeat CPU 0 instructions: 1030000003 cycles: 500329472 heartbeat IPC: 0.918517 cumulative IPC: 1.41364 (Simulation time: 1 hr 26 min 54 sec) 
Heartbeat CPU 0 instructions: 1040000003 cycles: 511418185 heartbeat IPC: 0.901818 cumulative IPC: 1.39893 (Simulation time: 1 hr 27 min 49 sec) 
Heartbeat CPU 0 instructions: 1050000000 cycles: 521678311 heartbeat IPC: 0.974647 cumulative IPC: 1.38795 (Simulation time: 1 hr 28 min 46 sec) 
Heartbeat CPU 0 instructions: 1060000000 cycles: 530542071 heartbeat IPC: 1.12819 cumulative IPC: 1.38227 (Simulation time: 1 hr 29 min 36 sec) 
Heartbeat CPU 0 instructions: 1070000001 cycles: 537240756 heartbeat IPC: 1.49283 cumulative IPC: 1.38406 (Simulation time: 1 hr 30 min 25 sec) 
Heartbeat CPU 0 instructions: 1080000004 cycles: 543426109 heartbeat IPC: 1.61672 cumulative IPC: 1.38751 (Simulation time: 1 hr 31 min 18 sec) 
Heartbeat CPU 0 instructions: 1090000002 cycles: 552191631 heartbeat IPC: 1.14083 cumulative IPC: 1.38244 (Simulation time: 1 hr 32 min 10 sec) 
Heartbeat CPU 0 instructions: 1100000004 cycles: 560542446 heartbeat IPC: 1.19749 cumulative IPC: 1.37889 (Simulation time: 1 hr 33 min 3 sec) 
Heartbeat CPU 0 instructions: 1110000000 cycles: 570851215 heartbeat IPC: 0.970048 cumulative IPC: 1.36943 (Simulation time: 1 hr 33 min 53 sec) 
Heartbeat CPU 0 instructions: 1120000004 cycles: 580223152 heartbeat IPC: 1.06702 cumulative IPC: 1.3632 (Simulation time: 1 hr 34 min 47 sec) 
Heartbeat CPU 0 instructions: 1130000002 cycles: 586976703 heartbeat IPC: 1.4807 cumulative IPC: 1.36492 (Simulation time: 1 hr 35 min 38 sec) 
Heartbeat CPU 0 instructions: 1140000003 cycles: 594387112 heartbeat IPC: 1.34945 cumulative IPC: 1.36467 (Simulation time: 1 hr 36 min 31 sec) 
Heartbeat CPU 0 instructions: 1150000003 cycles: 600680289 heartbeat IPC: 1.58902 cumulative IPC: 1.36764 (Simulation time: 1 hr 37 min 26 sec) 
Heartbeat CPU 0 instructions: 1160000003 cycles: 607021780 heartbeat IPC: 1.57692 cumulative IPC: 1.3704 (Simulation time: 1 hr 38 min 25 sec) 
Heartbeat CPU 0 instructions: 1170000000 cycles: 613257230 heartbeat IPC: 1.60373 cumulative IPC: 1.37338 (Simulation time: 1 hr 39 min 20 sec) 
Heartbeat CPU 0 instructions: 1180000002 cycles: 619689967 heartbeat IPC: 1.55455 cumulative IPC: 1.37574 (Simulation time: 1 hr 40 min 15 sec) 
Heartbeat CPU 0 instructions: 1190000004 cycles: 625996045 heartbeat IPC: 1.58577 cumulative IPC: 1.37838 (Simulation time: 1 hr 41 min 11 sec) 
Heartbeat CPU 0 instructions: 1200000003 cycles: 633810581 heartbeat IPC: 1.27967 cumulative IPC: 1.37687 (Simulation time: 1 hr 42 min 6 sec) 
Heartbeat CPU 0 instructions: 1210000001 cycles: 640611764 heartbeat IPC: 1.47033 cumulative IPC: 1.3781 (Simulation time: 1 hr 42 min 53 sec) 
Heartbeat CPU 0 instructions: 1220000004 cycles: 648045837 heartbeat IPC: 1.34516 cumulative IPC: 1.37763 (Simulation time: 1 hr 43 min 47 sec) 
Heartbeat CPU 0 instructions: 1230000003 cycles: 654117181 heartbeat IPC: 1.64708 cumulative IPC: 1.38073 (Simulation time: 1 hr 44 min 40 sec) 
Heartbeat CPU 0 instructions: 1240000003 cycles: 661682948 heartbeat IPC: 1.32174 cumulative IPC: 1.37989 (Simulation time: 1 hr 45 min 38 sec) 
Heartbeat CPU 0 instructions: 1250000003 cycles: 667595822 heartbeat IPC: 1.69122 cumulative IPC: 1.38329 (Simulation time: 1 hr 46 min 31 sec) 
Heartbeat CPU 0 instructions: 1260000003 cycles: 676291813 heartbeat IPC: 1.14996 cumulative IPC: 1.37961 (Simulation time: 1 hr 47 min 10 sec) 
Heartbeat CPU 0 instructions: 1270000000 cycles: 684704076 heartbeat IPC: 1.18874 cumulative IPC: 1.37674 (Simulation time: 1 hr 48 min 8 sec) 
Heartbeat CPU 0 instructions: 1280000004 cycles: 693071866 heartbeat IPC: 1.19506 cumulative IPC: 1.37406 (Simulation time: 1 hr 49 min 9 sec) 
Heartbeat CPU 0 instructions: 1290000003 cycles: 700940019 heartbeat IPC: 1.27095 cumulative IPC: 1.37265 (Simulation time: 1 hr 50 min 8 sec) 
Heartbeat CPU 0 instructions: 1300000002 cycles: 708594688 heartbeat IPC: 1.30639 cumulative IPC: 1.37178 (Simulation time: 1 hr 51 min 2 sec) 
Heartbeat CPU 0 instructions: 1310000002 cycles: 715225411 heartbeat IPC: 1.50813 cumulative IPC: 1.37331 (Simulation time: 1 hr 51 min 58 sec) 
Heartbeat CPU 0 instructions: 1320000000 cycles: 723743897 heartbeat IPC: 1.17392 cumulative IPC: 1.37047 (Simulation time: 1 hr 52 min 47 sec) 
Heartbeat CPU 0 instructions: 1330000002 cycles: 730874817 heartbeat IPC: 1.40234 cumulative IPC: 1.37085 (Simulation time: 1 hr 53 min 42 sec) 
Heartbeat CPU 0 instructions: 1340000001 cycles: 737760743 heartbeat IPC: 1.45224 cumulative IPC: 1.37176 (Simulation time: 1 hr 54 min 35 sec) 
Heartbeat CPU 0 instructions: 1350000001 cycles: 743538320 heartbeat IPC: 1.73083 cumulative IPC: 1.37512 (Simulation time: 1 hr 55 min 22 sec) 
Heartbeat CPU 0 instructions: 1360000004 cycles: 749300570 heartbeat IPC: 1.73543 cumulative IPC: 1.37845 (Simulation time: 1 hr 56 min 11 sec) 
Heartbeat CPU 0 instructions: 1370000000 cycles: 755755932 heartbeat IPC: 1.5491 cumulative IPC: 1.38019 (Simulation time: 1 hr 57 min 4 sec) 
Heartbeat CPU 0 instructions: 1380000002 cycles: 763087925 heartbeat IPC: 1.36389 cumulative IPC: 1.38001 (Simulation time: 1 hr 57 min 46 sec) 
Heartbeat CPU 0 instructions: 1390000002 cycles: 769534462 heartbeat IPC: 1.55122 cumulative IPC: 1.38172 (Simulation time: 1 hr 58 min 40 sec) 
Heartbeat CPU 0 instructions: 1400000002 cycles: 776703442 heartbeat IPC: 1.3949 cumulative IPC: 1.38187 (Simulation time: 1 hr 59 min 26 sec) 
Heartbeat CPU 0 instructions: 1410000001 cycles: 783430883 heartbeat IPC: 1.48645 cumulative IPC: 1.38293 (Simulation time: 2 hr 0 min 20 sec) 
Heartbeat CPU 0 instructions: 1420000003 cycles: 790921056 heartbeat IPC: 1.33508 cumulative IPC: 1.3824 (Simulation time: 2 hr 1 min 18 sec) 
Heartbeat CPU 0 instructions: 1430000004 cycles: 798005392 heartbeat IPC: 1.41157 cumulative IPC: 1.3827 (Simulation time: 2 hr 1 min 59 sec) 
Heartbeat CPU 0 instructions: 1440000000 cycles: 808607459 heartbeat IPC: 0.943212 cumulative IPC: 1.37588 (Simulation time: 2 hr 2 min 44 sec) 
Heartbeat CPU 0 instructions: 1450000000 cycles: 817877781 heartbeat IPC: 1.07871 cumulative IPC: 1.3719 (Simulation time: 2 hr 3 min 42 sec) 
Heartbeat CPU 0 instructions: 1460000004 cycles: 827671213 heartbeat IPC: 1.02109 cumulative IPC: 1.36701 (Simulation time: 2 hr 4 min 30 sec) 
Heartbeat CPU 0 instructions: 1470000000 cycles: 837063682 heartbeat IPC: 1.06468 cumulative IPC: 1.36302 (Simulation time: 2 hr 5 min 25 sec) 
Heartbeat CPU 0 instructions: 1480000000 cycles: 846582251 heartbeat IPC: 1.05058 cumulative IPC: 1.3589 (Simulation time: 2 hr 6 min 15 sec) 
Heartbeat CPU 0 instructions: 1490000003 cycles: 853061076 heartbeat IPC: 1.54349 cumulative IPC: 1.36054 (Simulation time: 2 hr 6 min 55 sec) 
Heartbeat CPU 0 instructions: 1500000002 cycles: 859715061 heartbeat IPC: 1.50286 cumulative IPC: 1.36183 (Simulation time: 2 hr 7 min 48 sec) 
Heartbeat CPU 0 instructions: 1510000003 cycles: 866486727 heartbeat IPC: 1.47674 cumulative IPC: 1.36288 (Simulation time: 2 hr 8 min 43 sec) 
Heartbeat CPU 0 instructions: 1520000000 cycles: 872392458 heartbeat IPC: 1.69327 cumulative IPC: 1.36549 (Simulation time: 2 hr 9 min 28 sec) 
Heartbeat CPU 0 instructions: 1530000002 cycles: 879586537 heartbeat IPC: 1.39003 cumulative IPC: 1.36573 (Simulation time: 2 hr 10 min 11 sec) 
Heartbeat CPU 0 instructions: 1540000004 cycles: 885630040 heartbeat IPC: 1.65467 cumulative IPC: 1.36802 (Simulation time: 2 hr 11 min 4 sec) 
Heartbeat CPU 0 instructions: 1550000000 cycles: 892251663 heartbeat IPC: 1.5102 cumulative IPC: 1.36925 (Simulation time: 2 hr 11 min 53 sec) 
Heartbeat CPU 0 instructions: 1560000000 cycles: 900098494 heartbeat IPC: 1.2744 cumulative IPC: 1.36829 (Simulation time: 2 hr 12 min 35 sec) 
Heartbeat CPU 0 instructions: 1570000002 cycles: 906517788 heartbeat IPC: 1.5578 cumulative IPC: 1.36985 (Simulation time: 2 hr 13 min 20 sec) 
Heartbeat CPU 0 instructions: 1580000000 cycles: 913232059 heartbeat IPC: 1.48936 cumulative IPC: 1.37087 (Simulation time: 2 hr 14 min 12 sec) 
Heartbeat CPU 0 instructions: 1590000001 cycles: 918872507 heartbeat IPC: 1.77291 cumulative IPC: 1.37373 (Simulation time: 2 hr 15 min 5 sec) 
Heartbeat CPU 0 instructions: 1600000003 cycles: 929432516 heartbeat IPC: 0.946969 cumulative IPC: 1.36812 (Simulation time: 2 hr 16 min 6 sec) 
Heartbeat CPU 0 instructions: 1610000002 cycles: 937578218 heartbeat IPC: 1.22764 cumulative IPC: 1.36671 (Simulation time: 2 hr 17 min 17 sec) 
Heartbeat CPU 0 instructions: 1620000000 cycles: 945656433 heartbeat IPC: 1.2379 cumulative IPC: 1.36544 (Simulation time: 2 hr 18 min 27 sec) 
Heartbeat CPU 0 instructions: 1630000001 cycles: 953518384 heartbeat IPC: 1.27195 cumulative IPC: 1.36456 (Simulation time: 2 hr 19 min 24 sec) 
Heartbeat CPU 0 instructions: 1640000001 cycles: 960538802 heartbeat IPC: 1.42442 cumulative IPC: 1.36506 (Simulation time: 2 hr 20 min 16 sec) 
Heartbeat CPU 0 instructions: 1650000004 cycles: 968708523 heartbeat IPC: 1.22403 cumulative IPC: 1.36369 (Simulation time: 2 hr 21 min 11 sec) 
Heartbeat CPU 0 instructions: 1660000000 cycles: 977773823 heartbeat IPC: 1.10311 cumulative IPC: 1.36092 (Simulation time: 2 hr 22 min 5 sec) 
Heartbeat CPU 0 instructions: 1670000001 cycles: 986170602 heartbeat IPC: 1.19093 cumulative IPC: 1.35926 (Simulation time: 2 hr 22 min 57 sec) 
Heartbeat CPU 0 instructions: 1680000001 cycles: 994101665 heartbeat IPC: 1.26086 cumulative IPC: 1.35836 (Simulation time: 2 hr 23 min 47 sec) 
Heartbeat CPU 0 instructions: 1690000000 cycles: 1000674581 heartbeat IPC: 1.52139 cumulative IPC: 1.35959 (Simulation time: 2 hr 24 min 35 sec) 
Heartbeat CPU 0 instructions: 1700000000 cycles: 1008488443 heartbeat IPC: 1.27978 cumulative IPC: 1.35888 (Simulation time: 2 hr 25 min 13 sec) 
Heartbeat CPU 0 instructions: 1710000000 cycles: 1016313759 heartbeat IPC: 1.2779 cumulative IPC: 1.35817 (Simulation time: 2 hr 25 min 57 sec) 
Heartbeat CPU 0 instructions: 1720000002 cycles: 1024252025 heartbeat IPC: 1.25972 cumulative IPC: 1.3573 (Simulation time: 2 hr 26 min 43 sec) 
Heartbeat CPU 0 instructions: 1730000001 cycles: 1031347694 heartbeat IPC: 1.40931 cumulative IPC: 1.35771 (Simulation time: 2 hr 27 min 28 sec) 
Heartbeat CPU 0 instructions: 1740000002 cycles: 1039544516 heartbeat IPC: 1.21999 cumulative IPC: 1.35647 (Simulation time: 2 hr 28 min 27 sec) 
Heartbeat CPU 0 instructions: 1750000002 cycles: 1049640698 heartbeat IPC: 0.990473 cumulative IPC: 1.35248 (Simulation time: 2 hr 29 min 26 sec) 
Heartbeat CPU 0 instructions: 1760000004 cycles: 1059658859 heartbeat IPC: 0.998187 cumulative IPC: 1.34868 (Simulation time: 2 hr 30 min 6 sec) 
Heartbeat CPU 0 instructions: 1770000000 cycles: 1069855944 heartbeat IPC: 0.980672 cumulative IPC: 1.3447 (Simulation time: 2 hr 30 min 40 sec) 
Heartbeat CPU 0 instructions: 1780000003 cycles: 1079941276 heartbeat IPC: 0.991539 cumulative IPC: 1.34097 (Simulation time: 2 hr 31 min 17 sec) 
Heartbeat CPU 0 instructions: 1790000003 cycles: 1089686603 heartbeat IPC: 1.02613 cumulative IPC: 1.33779 (Simulation time: 2 hr 31 min 50 sec) 
Heartbeat CPU 0 instructions: 1800000002 cycles: 1099284802 heartbeat IPC: 1.04186 cumulative IPC: 1.33487 (Simulation time: 2 hr 32 min 23 sec) 
Heartbeat CPU 0 instructions: 1810000001 cycles: 1116142274 heartbeat IPC: 0.593209 cumulative IPC: 1.32225 (Simulation time: 2 hr 33 min 53 sec) 
Heartbeat CPU 0 instructions: 1820000000 cycles: 1125955833 heartbeat IPC: 1.019 cumulative IPC: 1.31928 (Simulation time: 2 hr 34 min 25 sec) 
Heartbeat CPU 0 instructions: 1830000000 cycles: 1135825483 heartbeat IPC: 1.01321 cumulative IPC: 1.31629 (Simulation time: 2 hr 35 min 20 sec) 
Heartbeat CPU 0 instructions: 1840000000 cycles: 1146062543 heartbeat IPC: 0.976843 cumulative IPC: 1.31289 (Simulation time: 2 hr 35 min 59 sec) 
Heartbeat CPU 0 instructions: 1850000000 cycles: 1155905244 heartbeat IPC: 1.01598 cumulative IPC: 1.31005 (Simulation time: 2 hr 36 min 33 sec) 
Heartbeat CPU 0 instructions: 1860000003 cycles: 1165349127 heartbeat IPC: 1.05889 cumulative IPC: 1.30777 (Simulation time: 2 hr 37 min 9 sec) 
Heartbeat CPU 0 instructions: 1870000000 cycles: 1173836675 heartbeat IPC: 1.1782 cumulative IPC: 1.30672 (Simulation time: 2 hr 37 min 57 sec) 
Heartbeat CPU 0 instructions: 1880000000 cycles: 1181845864 heartbeat IPC: 1.24857 cumulative IPC: 1.30628 (Simulation time: 2 hr 38 min 39 sec) 
Heartbeat CPU 0 instructions: 1890000001 cycles: 1189899989 heartbeat IPC: 1.2416 cumulative IPC: 1.30579 (Simulation time: 2 hr 39 min 26 sec) 
Heartbeat CPU 0 instructions: 1900000001 cycles: 1197772958 heartbeat IPC: 1.27017 cumulative IPC: 1.30553 (Simulation time: 2 hr 40 min 8 sec) 
Heartbeat CPU 0 instructions: 1910000000 cycles: 1205866073 heartbeat IPC: 1.23562 cumulative IPC: 1.305 (Simulation time: 2 hr 40 min 52 sec) 
Heartbeat CPU 0 instructions: 1920000000 cycles: 1213683483 heartbeat IPC: 1.2792 cumulative IPC: 1.30482 (Simulation time: 2 hr 41 min 34 sec) 
Heartbeat CPU 0 instructions: 1930000000 cycles: 1221621589 heartbeat IPC: 1.25975 cumulative IPC: 1.30449 (Simulation time: 2 hr 42 min 18 sec) 
Heartbeat CPU 0 instructions: 1940000003 cycles: 1229314603 heartbeat IPC: 1.29988 cumulative IPC: 1.30446 (Simulation time: 2 hr 43 min 7 sec) 
Heartbeat CPU 0 instructions: 1950000003 cycles: 1237438759 heartbeat IPC: 1.2309 cumulative IPC: 1.30392 (Simulation time: 2 hr 44 min 16 sec) 
Heartbeat CPU 0 instructions: 1960000001 cycles: 1245082172 heartbeat IPC: 1.30832 cumulative IPC: 1.30395 (Simulation time: 2 hr 45 min 1 sec) 
Heartbeat CPU 0 instructions: 1970000000 cycles: 1252689742 heartbeat IPC: 1.31448 cumulative IPC: 1.30402 (Simulation time: 2 hr 45 min 49 sec) 
Heartbeat CPU 0 instructions: 1980000002 cycles: 1261180348 heartbeat IPC: 1.17777 cumulative IPC: 1.30308 (Simulation time: 2 hr 46 min 35 sec) 
Heartbeat CPU 0 instructions: 1990000000 cycles: 1269414544 heartbeat IPC: 1.21445 cumulative IPC: 1.30244 (Simulation time: 2 hr 47 min 17 sec) 
*** Reached end of trace: traces/657.xz_s-3167B.champsimtrace.xz
Heartbeat CPU 0 instructions: 2000000000 cycles: 1277204485 heartbeat IPC: 1.28371 cumulative IPC: 1.30232 (Simulation time: 2 hr 47 min 59 sec) 
Finished CPU 0 instructions: 1500000004 cycles: 1151794550 cumulative IPC: 1.30232 (Simulation time: 2 hr 47 min 59 sec) 

ChampSim completed all CPUs

Region of Interest Statistics

CPU 0 cumulative IPC: 1.30232 instructions: 1500000004 cycles: 1151794550
cpu0_DTLB TOTAL     ACCESS:  273608876  HIT:  266121986  MISS:    7486890
cpu0_DTLB LOAD      ACCESS:  212110063  HIT:  207248535  MISS:    4861528
cpu0_DTLB RFO       ACCESS:   61498813  HIT:   58873451  MISS:    2625362
cpu0_DTLB PREFETCH  ACCESS:          0  HIT:          0  MISS:          0
cpu0_DTLB WRITEBACK ACCESS:          0  HIT:          0  MISS:          0
cpu0_DTLB TRANSLATION ACCESS:          0  HIT:          0  MISS:          0
cpu0_DTLB PREFETCH  REQUESTED:          0  ISSUED:          0  USEFUL:          0  USELESS:          0
cpu0_DTLB AVERAGE MISS LATENCY: 10.7325 cycles
cpu0_ITLB TOTAL     ACCESS:  126624952  HIT:  126624949  MISS:          3
cpu0_ITLB LOAD      ACCESS:  126624952  HIT:  126624949  MISS:          3
cpu0_ITLB RFO       ACCESS:          0  HIT:          0  MISS:          0
cpu0_ITLB PREFETCH  ACCESS:          0  HIT:          0  MISS:          0
cpu0_ITLB WRITEBACK ACCESS:          0  HIT:          0  MISS:          0
cpu0_ITLB TRANSLATION ACCESS:          0  HIT:          0  MISS:          0
cpu0_ITLB PREFETCH  REQUESTED:          0  ISSUED:          0  USEFUL:          0  USELESS:          0
cpu0_ITLB AVERAGE MISS LATENCY: 220.667 cycles
cpu0_L1I TOTAL     ACCESS:   33346739  HIT:   33345832  MISS:        907
cpu0_L1I LOAD      ACCESS:   33346739  HIT:   33345832  MISS:        907
cpu0_L1I RFO       ACCESS:          0  HIT:          0  MISS:          0
cpu0_L1I PREFETCH  ACCESS:          0  HIT:          0  MISS:          0
cpu0_L1I WRITEBACK ACCESS:          0  HIT:          0  MISS:          0
cpu0_L1I TRANSLATION ACCESS:          0  HIT:          0  MISS:          0
cpu0_L1I PREFETCH  REQUESTED:          0  ISSUED:          0  USEFUL:          0  USELESS:          0
cpu0_L1I AVERAGE MISS LATENCY: 68.0243 cycles
cpu0_STLB TOTAL     ACCESS:    7486893  HIT:    6638695  MISS:     848198
cpu0_STLB LOAD      ACCESS:    4861531  HIT:    4075494  MISS:     786037
cpu0_STLB RFO       ACCESS:    2625362  HIT:    2563201  MISS:      62161
cpu0_STLB PREFETCH  ACCESS:          0  HIT:          0  MISS:          0
cpu0_STLB WRITEBACK ACCESS:          0  HIT:          0  MISS:          0
cpu0_STLB TRANSLATION ACCESS:          0  HIT:          0  MISS:          0
cpu0_STLB PREFETCH  REQUESTED:          0  ISSUED:          0  USEFUL:          0  USELESS:          0
cpu0_STLB AVERAGE MISS LATENCY: 15.2157 cycles
cpu0_L1D TOTAL     ACCESS:  293790127  HIT:  285608131  MISS:    8181996
cpu0_L1D LOAD      ACCESS:  185992153  HIT:  179662506  MISS:    6329647
cpu0_L1D RFO       ACCESS:  106950897  HIT:  105112933  MISS:    1837964
cpu0_L1D PREFETCH  ACCESS:          0  HIT:          0  MISS:          0
cpu0_L1D WRITEBACK ACCESS:          0  HIT:          0  MISS:          0
cpu0_L1D TRANSLATION ACCESS:     847077  HIT:     832692  MISS:      14385
cpu0_L1D PREFETCH  REQUESTED:          0  ISSUED:          0  USEFUL:          0  USELESS:          0
cpu0_L1D AVERAGE MISS LATENCY: 84.7528 cycles
cpu0_L2C TOTAL     ACCESS:   14084734  HIT:   10627962  MISS:    3456772
cpu0_L2C LOAD      ACCESS:    6330365  HIT:    3601027  MISS:    2729338
cpu0_L2C RFO       ACCESS:    1837556  HIT:    1120696  MISS:     716860
cpu0_L2C PREFETCH  ACCESS:          0  HIT:          0  MISS:          0
cpu0_L2C WRITEBACK ACCESS:    5902428  HIT:    5892821  MISS:       9607
cpu0_L2C TRANSLATION ACCESS:      14385  HIT:      13418  MISS:        967
cpu0_L2C PREFETCH  REQUESTED:          0  ISSUED:          0  USEFUL:          0  USELESS:          0
cpu0_L2C AVERAGE MISS LATENCY: 174.541 cycles
LLC TOTAL     ACCESS:    5928500  HIT:    3834087  MISS:    2094413
LLC LOAD      ACCESS:    2729333  HIT:    1237388  MISS:    1491945
LLC RFO       ACCESS:     716844  HIT:     129709  MISS:     587135
LLC PREFETCH  ACCESS:          0  HIT:          0  MISS:          0
LLC WRITEBACK ACCESS:    2481356  HIT:    2466167  MISS:      15189
LLC TRANSLATION ACCESS:        967  HIT:        823  MISS:        144
LLC PREFETCH  REQUESTED:          0  ISSUED:          0  USEFUL:          0  USELESS:          0
LLC AVERAGE MISS LATENCY: 253.512 cycles
~~~~~~~~~~Reuse Distance Profiler output~~~~~~~~~~
0	47700240	15027648
1	73304672	54591616
2	34354048	23079328
3	28026704	20556896
4	20379056	14701712
5	17432128	11999808
6	10624496	7424976
7	9010080	5638832
8	7469552	4469648
9	6054144	3717456
10	5181184	3696240
11	5602784	3740768
12	4675200	3270016
13	4157744	2723344
14	3978208	2651296
15	3848400	2518288
16	3743008	2343744
17	2486096	1368064
18	1981808	1196992
19	1992976	1273136
20	1716432	1088608
21	1703536	1107440
22	1645680	1027920
23	1857824	1095248
24	2240816	1313040
25	1860880	1077760
26	1568800	960368
27	1513376	844528
28	2234928	1672368
29	1672752	1114224
30	1386064	689120
31	1305344	575056
32	969856	535968
33	973616	545008
34	1249888	848832
35	1464832	813632
36	1403312	1112320
37	851296	591920
38	900272	628096
39	864576	635072
40	647984	452672
41	636352	418880
42	678624	414576
43	653984	402528
44	683600	472896
45	586800	400736
46	640336	466560
47	696608	506224
48	680864	492032
49	750000	549376
50	682672	463184
51	639008	425920
52	618944	418512
53	752352	466576
54	924656	638976
55	734944	504128
56	606848	416928
57	563648	397040
58	555936	389536
59	629168	465632
60	529696	364752
61	525200	356848
62	525584	342976
63	520112	337840
64	1067136	710064
66	956992	571888
68	993408	632240
70	951968	560544
72	916304	552576
74	909920	567184
76	830048	478560
78	871664	560576
80	712880	493120
82	666688	474576
84	719056	552640
86	628528	480784
88	632784	499984
90	494336	381072
92	452464	353136
94	478864	383520
96	395824	299536
98	449248	353072
100	405952	312032
102	398512	308160
104	413456	325840
106	363232	274384
108	439184	351184
110	371184	283520
112	341232	258704
114	401360	320992
116	334752	258960
118	375904	308144
120	277376	217104
122	268160	212512
124	302976	249440
126	246128	193584
128	580336	444960
132	660304	487792
136	668912	474880
140	598832	418272
144	606592	438432
148	570512	410176
152	568448	440976
156	558720	465552
160	489200	410928
164	534960	463504
168	525216	445872
172	510432	430048
176	488048	405104
180	492464	371792
184	504464	399184
188	466448	377584
192	411984	315136
196	390256	283072
200	393952	264656
204	519552	324256
208	569344	320048
212	625792	348208
216	738336	388176
220	527968	301920
224	432320	276592
228	368672	247936
232	330432	228144
236	304368	212400
240	267712	188176
244	270368	203792
248	262240	200832
252	263280	198448
256	484832	368688
264	495136	379984
272	486384	377248
280	453680	353968
288	468336	367952
296	428896	345024
304	427328	350272
312	423088	344160
320	419056	328384
328	422512	339216
336	389664	326016
344	386336	332048
352	386080	332112
360	373184	313200
368	371936	312368
376	337568	286080
384	331152	286752
392	327264	278368
400	313872	261904
408	301872	255712
416	282016	239600
424	269200	231728
432	266144	225376
440	232784	193696
448	222640	184752
456	191584	159376
464	189440	153424
472	180768	139760
480	152576	122128
488	139984	116912
496	126864	106416
504	122416	100976
512	214864	173648
528	189104	149744
544	166304	132784
560	131936	105680
576	132368	96848
592	118208	84272
608	113216	82656
624	114384	82592
640	117840	90992
656	133232	104816
672	122912	97056
688	92864	68912
704	76272	57184
720	71760	49904
736	75776	50448
752	71936	49312
768	69264	49792
784	72192	51808
800	67232	46912
816	73680	52384
832	80928	53072
848	83136	57952
864	84928	61728
880	69968	51264
896	65328	46848
912	72544	45968
928	70768	45600
944	76576	48000
960	73376	45360
976	71408	44080
992	68704	42080
1008	65296	39376
1024	122400	79728
1056	140752	95360
1088	141712	95200
1120	131136	85024
1152	133472	83664
1184	123408	78960
1216	135776	89968
1248	148064	89152
1280	140960	95152
1312	128720	87904
1344	112736	76688
1376	111376	72640
1408	109824	70032
1440	105328	69664
1472	103888	70032
1504	114992	79376
1536	111328	74576
1568	103984	65584
1600	99632	64432
1632	95952	61440
1664	95328	61472
1696	98688	66816
1728	106752	72336
1760	101248	64752
1792	95328	58496
1824	88976	56144
1856	85120	53664
1888	82272	52432
1920	81632	53840
1952	85440	59280
1984	83040	55856
2016	78736	51712
2048	158384	99568
2112	151312	97072
2176	158800	102800
2240	138736	86640
2304	135584	84608
2368	141168	94272
2432	128752	83120
2496	121856	75472
2560	126848	79856
2624	120160	79264
2688	109408	69440
2752	105936	67584
2816	110192	72752
2880	102192	65952
2944	94672	59552
3008	100816	66160
3072	99872	65264
3136	92944	58368
3200	91472	58496
3264	96624	65488
3328	90656	60720
3392	84224	55744
3456	88544	59536
3520	86016	58640
3584	81088	51888
3648	84384	55328
3712	85280	55952
3776	80688	52256
3840	79264	52240
3904	80864	53808
3968	76528	50448
4032	72464	48896
4096	157184	102912
4224	136336	89040
4352	129328	88512
4480	125184	84640
4608	132288	89536
4736	126096	84960
4864	120976	81856
4992	126624	86240
5120	122752	81376
5248	124736	82720
5376	113280	77344
5504	111520	74160
5632	105200	70960
5760	104976	69680
5888	106096	72448
6016	101920	68560
6144	105648	71904
6272	98816	65888
6400	99904	68336
6528	98768	66256
6656	93024	61424
6784	88160	59968
6912	88688	60032
7040	91792	62096
7168	91344	61104
7296	87744	59008
7424	90128	59872
7552	84608	55888
7680	80304	55312
7808	79648	54016
7936	78000	52688
8064	79328	53008
8192	150992	102208
8448	142800	97120
8704	138240	93632
8960	134048	89792
9216	125600	84688
9472	125824	84096
9728	122320	83504
9984	119744	81856
10240	113824	78224
10496	102224	71888
10752	100720	70400
11008	98064	67600
11264	96736	65808
11520	90464	62288
11776	88496	62256
12032	88784	60832
12288	87008	58784
12544	83632	57248
12800	77488	53216
13056	73136	50640
13312	68336	47824
13568	65072	44864
13824	64960	45168
14080	59360	42048
14336	55984	39856
14592	52832	37424
14848	51392	36000
15104	48368	34592
15360	50928	36416
15616	46272	32352
15872	49488	35552
16128	48624	35088
16384	93776	68032
16896	88064	64000
17408	86912	63072
17920	86880	65232
18432	84624	63232
18944	84880	62928
19456	78304	57712
19968	79392	57360
20480	78384	56128
20992	81888	57024
21504	87968	61792
22016	96848	67440
22528	100240	69840
23040	103792	71632
23552	110480	78112
24064	119760	83984
24576	112912	79392
25088	116336	81008
25600	110800	77440
26112	106816	74304
26624	91152	63968
27136	83984	58864
27648	75568	54144
28160	65872	47456
28672	57776	41744
29184	59088	42688
29696	55600	40016
30208	52784	38016
30720	50752	36432
31232	51200	36448
31744	50384	36928
32256	50720	36480
32768	94096	67504
33792	88176	62512
34816	87728	63520
35840	90144	65888
36864	87376	61728
37888	85024	62304
38912	79104	56624
39936	72656	53280
40960	72976	52432
41984	61776	45264
43008	55968	41152
44032	54448	40352
45056	52064	39248
46080	50048	37536
47104	51648	39520
48128	46176	35648
49152	45200	34528
50176	41600	31232
51200	40544	30976
52224	38976	29856
53248	36704	28048
54272	33072	25888
55296	32336	25024
56320	32128	24288
57344	29840	22992
58368	29488	22448
59392	27520	21376
60416	29136	22704
61440	25840	20192
62464	26080	20128
63488	24496	18432
64512	24720	19344
65536	49200	38976
67584	44320	36032
69632	42752	34320
71680	38336	30096
73728	36704	29360
75776	35184	27504
77824	32640	26176
79872	34544	27792
81920	31616	25936
83968	32608	25392
86016	31184	24576
88064	29888	24016
90112	58384	22112
92160	45248	21824
94208	27136	22448
96256	26544	21152
98304	23344	19296
100352	25776	20960
102400	23872	19888
104448	22512	18496
106496	24112	19840
108544	22960	18640
110592	21152	17248
112640	21648	17856
114688	20640	17040
116736	20272	16480
118784	19264	15536
120832	19440	16176
122880	19664	16560
124928	16992	14240
126976	19584	16144
129024	18432	15696
131072	34640	28528
135168	30576	25984
139264	30400	25264
143360	30000	25312
147456	30368	25680
151552	29232	24448
155648	26848	23008
159744	26496	22656
163840	26384	21840
167936	25472	21776
172032	24176	20832
176128	22864	19152
180224	24736	20752
184320	21872	18560
188416	20320	17248
192512	22096	18592
196608	20848	17936
200704	20256	17216
204800	19216	16464
208896	19664	16864
212992	19824	17040
217088	19136	16016
221184	17664	15024
225280	18224	15552
229376	18800	15888
233472	17216	14816
237568	15792	13808
241664	16672	14720
245760	14928	12960
249856	14608	12672
253952	16064	13776
258048	15776	13728
262144	28304	24112
270336	29184	25328
278528	26528	22816
286720	26544	23264
294912	26400	22880
303104	25248	21504
311296	26912	22992
319488	23376	19952
327680	24272	21456
335872	23488	20288
344064	22976	19984
352256	22800	19952
360448	22640	19536
368640	19696	17424
376832	18944	16528
385024	19920	17200
393216	20864	17632
401408	19968	17184
409600	18832	16144
417792	19264	16608
425984	18880	16496
434176	19392	17040
442368	18896	16480
450560	17936	15456
458752	19152	16512
466944	17872	15376
475136	17616	15408
483328	16928	14976
491520	17968	15952
499712	21936	19616
507904	23888	21984
516096	22272	20080
524288	40784	37200
540672	36288	31568
557056	34528	30096
573440	34256	29600
589824	56224	47472
606208	42944	36960
622592	29744	26768
638976	26736	24336
655360	28352	26048
671744	24944	22816
688128	24304	22096
704512	27248	24672
720896	24352	22160
737280	24240	21872
753664	21200	19376
770048	21264	19664
786432	21280	19680
802816	20336	18816
819200	21792	19856
835584	20000	17920
851968	20304	18208
868352	20160	18016
884736	16560	14880
901120	20176	18832
917504	16784	15312
933888	16768	15728
950272	18592	17136
966656	17376	16192
983040	15648	14368
999424	15168	14128
1015808	14544	13632
1032192	13168	12080
1048576	28176	26304
1081344	28176	25840
1114112	26528	24592
1146880	22816	21008
1179648	23696	21840
1212416	26400	24016
1245184	22512	20480
1277952	21936	20208
1310720	21792	19824
1343488	20768	18608
1376256	19712	18304
1409024	20032	18448
1441792	19680	18224
1474560	19072	17616
1507328	17936	16480
1540096	17472	15920
1572864	15408	14240
1605632	17408	15696
1638400	15584	14448
1671168	17168	16000
1703936	15392	14384
1736704	15424	14160
1769472	14784	13696
1802240	14848	13616
1835008	15552	13888
1867776	15952	14816
1900544	12640	11376
1933312	13616	12560
1966080	13456	12464
1998848	12928	11888
2031616	12400	11568
2064384	13168	12256
2097152	24864	23040
2162688	23472	21984
2228224	22192	20800
2293760	20848	19472
2359296	22864	21376
2424832	19632	18576
2490368	18608	17280
2555904	18768	17360
2621440	20912	19024
2686976	16848	15856
2752512	17776	16560
2818048	17744	16560
2883584	14896	13632
2949120	17616	16256
3014656	15504	14352
3080192	15616	14176
3145728	14896	13696
3211264	16208	14752
3276800	13056	12224
3342336	12960	12192
3407872	12064	11232
3473408	11248	10512
3538944	11440	10704
3604480	12272	11184
3670016	10784	10016
3735552	11056	10176
3801088	11616	10784
3866624	11968	10912
3932160	10608	9856
3997696	9984	9216
4063232	9088	8448
4128768	8960	8464
4194304	19376	18176
4325376	18080	16688
4456448	17008	15904
4587520	15744	14736
4718592	15664	14848
4849664	14448	13616
4980736	15072	13968
5111808	14480	13600
5242880	14800	13888
5373952	13792	12976
5505024	12512	11856
5636096	12448	11728
5767168	14096	13376
5898240	12176	11488
6029312	10912	10208
6160384	10976	10256
6291456	12032	11312
6422528	11360	10848
6553600	11280	10800
6684672	10592	10112
6815744	11536	10928
6946816	10960	10432
7077888	10112	9728
7208960	9632	9328
7340032	10096	9600
7471104	10192	9712
7602176	9456	9072
7733248	9440	8816
7864320	8432	7904
7995392	8128	7648
8126464	8880	8416
8257536	8048	7696
8388608	15584	14848
8650752	15104	14336
8912896	13072	12336
9175040	12976	12288
9437184	13280	12480
9699328	13408	12576
9961472	12704	12128
10223616	11728	11120
10485760	11648	11168
10747904	13216	12704
11010048	12016	11296
11272192	14912	14064
11534336	14144	13008
11796480	14464	13744
12058624	13088	12128
12320768	11696	11088
12582912	10736	10128
12845056	12240	11280
13107200	9616	9168
13369344	11344	10464
13631488	9952	9424
13893632	9376	8944
14155776	9296	8752
14417920	9232	8992
14680064	9248	8816
14942208	8544	8064
15204352	9424	9040
15466496	7184	6688
15728640	7904	7296
15990784	9424	8480
16252928	8944	8336
16515072	8720	8272
16777216	15984	14928
17301504	14064	13360
17825792	13360	12816
18350080	13968	13280
18874368	13248	12096
19398656	13232	12400
19922944	14544	13792
20447232	13328	12400
20971520	11952	10864
21495808	10256	9456
22020096	10496	9760
22544384	8352	7584
23068672	8688	7952
23592960	8432	7760
24117248	8880	8128
24641536	8320	7728
25165824	8112	7456
25690112	8176	7840
26214400	7456	6640
26738688	7552	7088
27262976	7552	6928
27787264	7424	6656
28311552	7680	7040
28835840	6752	6416
29360128	6752	6224
29884416	7696	7072
30408704	7680	7184
30932992	6912	6336
31457280	7104	6352
31981568	6848	6112
32505856	5776	5088
33030144	6144	5504
33554432	12048	10064
34603008	10336	9184
35651584	11536	10224
36700160	9328	7984
37748736	9872	8432
38797312	9104	7520
39845888	8880	7536
40894464	11568	10400
41943040	8208	7008
42991616	8592	7200
44040192	8832	7344
45088768	8432	7216
46137344	7920	7040
47185920	8160	6992
48234496	12432	11040
49283072	9984	8992
50331648	8304	7152
51380224	8608	6416
52428800	7088	6064
53477376	7648	6784
54525952	7040	6304
55574528	5968	5232
56623104	6272	5616
57671680	5904	5216
58720256	6768	6128
59768832	6560	5920
60817408	6176	5632
61865984	5344	4704
62914560	5744	5072
63963136	5056	4320
65011712	5280	4768
66060288	4944	4288
67108864	9440	8384
69206016	9184	8064
71303168	11056	9856
73400320	9264	8320
75497472	8944	7808
77594624	8176	7088
79691776	6896	5792
81788928	6416	5680
83886080	6800	6128
85983232	5824	4896
88080384	5280	4272
90177536	5104	4352
92274688	3968	3168
94371840	5552	4800
96468992	4992	4208
98566144	5088	4176
100663296	4272	3488
102760448	4256	3328
104857600	4176	3248
106954752	3312	2496
109051904	3712	2720
111149056	3760	2656
113246208	3920	2848
115343360	4320	3152
117440512	3952	2944
119537664	3760	2736
121634816	3728	2640
123731968	3648	2528
125829120	3408	2112
127926272	3520	2112
130023424	3744	2192
132120576	3232	1872
134217728	6704	4768
138412032	6272	3904
142606336	6512	3504
146800640	4800	2944
150994944	5600	3104
155189248	5232	3296
159383552	5152	3376
163577856	4480	3344
167772160	3488	2672
171966464	3584	2320
176160768	3888	2272
180355072	3408	2000
184549376	3840	2160
188743680	4256	2688
192937984	3760	2528
197132288	2432	1456
201326592	2608	1360
205520896	2880	1392
209715200	3120	1376
213909504	2912	1328
218103808	2672	1376
222298112	3136	2064
226492416	3024	2384
230686720	2368	1072
234881024	1968	1088
239075328	33168	5648
243269632	1712	1360
247463936	1088	912
251658240	816	624
255852544	608	480
260046848	768	560
264241152	768	592
268435456	1280	960
276824064	688	320
285212672	752	208
293601280	848	416
301989888	800	448
310378496	464	208
318767104	656	416
327155712	672	432
335544320	368	304
343932928	432	272
352321536	256	208
360710144	48	48
369098752	64	48
377487360	16	0
385875968	32	0
394264576	48	0
402653184	16	0
411041792	0	0
419430400	0	0
427819008	0	0
436207616	0	0
444596224	0	0
452984832	0	0
461373440	0	0
469762048	0	0
478150656	0	0
486539264	0	0
494927872	0	0
503316480	0	0
511705088	0	0
520093696	0	0
528482304	0	0
536870912	0	0
553648128	0	0
570425344	0	0
587202560	0	0
603979776	0	0
620756992	0	0
637534208	0	0
654311424	0	0
671088640	0	0
687865856	0	0
704643072	0	0
721420288	0	0
738197504	0	0
754974720	0	0
771751936	0	0
788529152	0	0
805306368	0	0
822083584	0	0
838860800	0	0
855638016	0	0
872415232	0	0
889192448	0	0
905969664	0	0
922746880	0	0
939524096	0	0
956301312	0	0
973078528	0	0
989855744	0	0
1006632960	0	0
1023410176	0	0
1040187392	0	0
1056964608	0	0
1073741824	0	0
1107296256	0	0
1140850688	0	0
1174405120	0	0
1207959552	0	0
1241513984	0	0
1275068416	0	0
1308622848	0	0
1342177280	0	0
1375731712	0	0
1409286144	0	0
1442840576	0	0
1476395008	0	0
1509949440	0	0
1543503872	0	0
1577058304	0	0
1610612736	0	0
1644167168	0	0
1677721600	0	0
1711276032	0	0
1744830464	0	0
1778384896	0	0
1811939328	0	0
1845493760	0	0
1879048192	0	0
1912602624	0	0
1946157056	0	0
1979711488	0	0
2013265920	0	0
2046820352	0	0
2080374784	0	0
2113929216	0	0
2147483648	0	0
2214592512	0	0
2281701376	0	0
2348810240	0	0
2415919104	0	0
2483027968	0	0
2550136832	0	0
2617245696	0	0
2684354560	0	0
2751463424	0	0
2818572288	0	0
2885681152	0	0
2952790016	0	0
3019898880	0	0
3087007744	0	0
3154116608	0	0
3221225472	0	0
3288334336	0	0
3355443200	0	0
3422552064	0	0
3489660928	0	0
3556769792	0	0
3623878656	0	0
3690987520	0	0
3758096384	0	0
3825205248	0	0
3892314112	0	0
3959422976	0	0
4026531840	0	0
4093640704	0	0
4160749568	0	0
4227858432	0	0
~~~~~~~~~~Reuse Distance Profiler output end~~~~~~~~~~

DRAM Statistics
 CHANNEL 0
 RQ ROW_BUFFER_HIT:     122740  ROW_BUFFER_MISS:    1956456
 DBUS AVG_CONGESTED_CYCLE:     3.8878
 WQ ROW_BUFFER_HIT:     303980  ROW_BUFFER_MISS:    1273023  FULL:          0


CPU 0 Branch Prediction Accuracy: 89.5736% MPKI: 15.4996 Average ROB Occupancy at Mispredict: 39.6085
Branch type MPKI
BRANCH_DIRECT_JUMP: 6.66667e-07
BRANCH_INDIRECT: 1.09675
BRANCH_CONDITIONAL: 14.4013
BRANCH_DIRECT_CALL: 6.66667e-07
BRANCH_INDIRECT_CALL: 0.00159133
BRANCH_RETURN: 6.66667e-07

